version 3
run TraceFile-Tcp-0-20230426-16:23:31-213114
attr configname TraceFile-Tcp
attr datetime 20230426-16:23:31
attr datetimef 20230426-162331
attr experiment TraceFile-Tcp
attr inifile omnetpp.ini
attr iterationvars "$N1=fullPath(), $N2=fullPath(), $alphaMainClientNetPerfMeterID=ancestorIndex(0), $alphaMainClientID=ancestorIndex(1), $alphaMainServerNetPerfMeterID=ancestorIndex(0)"
attr iterationvarsd N1=fullPath()/N2=fullPath()/alphaMainClientNetPerfMeterID=ancestorIndex(0)/alphaMainClientID=ancestorIndex(1)/alphaMainServerNetPerfMeterID=ancestorIndex(0)
attr iterationvarsf N1=fullPath(),N2=fullPath(),alphaMainClientNetPerfMeterID=ancestorIndex(0),alphaMainClientID=ancestorIndex(1),alphaMainServerNetPerfMeterID=ancestorIndex(0)-
attr measurement "$N1=fullPath(), $N2=fullPath(), $alphaMainClientNetPerfMeterID=ancestorIndex(0), $alphaMainClientID=ancestorIndex(1), $alphaMainServerNetPerfMeterID=ancestorIndex(0)"
attr network testNetwork
attr processid 213114
attr repetition 0
attr replication #0
attr resultdir results
attr runnumber 0
attr seedset 0
itervar N1 fullPath()
itervar N2 fullPath()
itervar alphaMainClientID ancestorIndex(1)
itervar alphaMainClientNetPerfMeterID ancestorIndex(0)
itervar alphaMainServerNetPerfMeterID ancestorIndex(0)
config **.param-recording false
config **.vector-recording false
config image-path /home/levy/workspace/inet/images
config output-scalar-file results/omnetpp.ini-TraceFile-Tcp-#0.sca
config sim-time-limit "3600s 1ms"
config testNetwork.systems 1
config testNetwork.client*[*].app[*].traceFile "\"trace111.trace\""
config testNetwork.*[*].app[*].stopTime 600s
config testNetwork.*[*].app[*].protocol "\"TCP\""
config network testNetwork
config sim-time-limit 100s
config rng-class cMersenneTwister
config seed-0-mt 1
config output-scalar-file scalars.sca
config output-vector-file vectors.vec
config sim-time-limit "3600s 1ms"
config simtime-resolution 10ns
config testNetwork.*Main[*].hasSctp true
config testNetwork.**.vector-recording false
config testNetwork.**.vector-recording-intervals 0..3600
config testNetwork.systems 5
config testNetwork.westernCoreRouter.ppp[0].ppp.mtu "1500 B"
config testNetwork.westernCoreRouter.ppp[0].queue.typename inet.examples.inet.netperfmeter.REDQueue
config testNetwork.westernCoreRouter.ppp[0].queue.red.wq 0.002
config testNetwork.westernCoreRouter.ppp[0].queue.red.minth 30
config testNetwork.westernCoreRouter.ppp[0].queue.red.maxth 90
config testNetwork.westernCoreRouter.ppp[0].queue.red.maxp 0.1
config testNetwork.westernCoreRouter.ppp[0].queue.red.pkrate 8333.333
config testNetwork.westernCoreRouter.pppg$o[0].channel.datarate "1e+07 bps"
config testNetwork.westernCoreRouter.pppg$o[0].channel.delay "10 ms"
config testNetwork.westernCoreRouter.pppg$o[0].channel.per 0
config testNetwork.westernCoreRouter.pppg$o[0].channel.ber 0
config testNetwork.easternCoreRouter.ppp[0].ppp.mtu "1500 B"
config testNetwork.easternCoreRouter.ppp[0].queue.typename inet.examples.inet.netperfmeter.REDQueue
config testNetwork.easternCoreRouter.ppp[0].queue.red.wq 0.002
config testNetwork.easternCoreRouter.ppp[0].queue.red.minth 30
config testNetwork.easternCoreRouter.ppp[0].queue.red.maxth 90
config testNetwork.easternCoreRouter.ppp[0].queue.red.maxp 0.1
config testNetwork.easternCoreRouter.ppp[0].queue.red.pkrate 8333.333
config testNetwork.easternCoreRouter.pppg$o[0].channel.datarate "1e+07 bps"
config testNetwork.easternCoreRouter.pppg$o[0].channel.delay "10 ms"
config testNetwork.easternCoreRouter.pppg$o[0].channel.per 0
config testNetwork.easternCoreRouter.pppg$o[0].channel.ber 0
config testNetwork.*.ppp[*].ppp.mtu "1500 B"
config testNetwork.**.crcMode "\"computed\""
config testNetwork.client*[*].app[*].activeMode true
config testNetwork.client*[*].app[*].connectTime "0.001 s"
config testNetwork.client*[*].app[*].startTime uniform(0.9s,1.1s)
config testNetwork.client*[*].app[*].resetTime "19 s"
config testNetwork.client*[*].app[*].stopTime "60 s"
config testNetwork.client*[*].app[*].queueSize "5000000 B"
config testNetwork.client*[*].app[*].unordered 1
config testNetwork.client*[*].app[*].unreliable 0
config testNetwork.client*[*].app[*].outboundStreams 1
config testNetwork.client*[*].app[*].maxMsgSize "1452 B"
config testNetwork.client*[*].app[*].frameRate "0 Hz"
config testNetwork.client*[*].app[*].frameSize "1452 B"
config testNetwork.client*[*].app[*].frameRateString "\"\""
config testNetwork.client*[*].app[*].frameSizeString "\"\""
config testNetwork.client*[*].app[*].onTime -1s
config testNetwork.client*[*].app[*].offTime -1s
config testNetwork.client*[*].numPcapRecorders 1
config testNetwork.client*[*].pcapRecorder[0].pcapFile "fullPath()+\".pcap\""
config testNetwork.server*[*].app[*].activeMode false
config testNetwork.server*[*].app[*].connectTime "0.001 s"
config testNetwork.server*[*].app[*].startTime uniform(0.9s,1.1s)
config testNetwork.server*[*].app[*].resetTime "19 s"
config testNetwork.server*[*].app[*].stopTime "60 s"
config testNetwork.server*[*].app[*].queueSize "5000000 B"
config testNetwork.server*[*].app[*].unordered 1
config testNetwork.server*[*].app[*].unreliable 0
config testNetwork.server*[*].app[*].maxInboundStreams 16
config testNetwork.server*[*].app[*].frameRate "0 Hz"
config testNetwork.server*[*].app[*].frameSize "0 B"
config testNetwork.server*[*].app[*].frameRateString "\"\""
config testNetwork.server*[*].app[*].frameSizeString "\"\""
config testNetwork.server*[*].app[*].maxMsgSize "1452 B"
config testNetwork.server*[*].numPcapRecorders 1
config testNetwork.server*[*].pcapRecorder[0].pcapFile "fullPath()+\".pcap\""
config testNetwork.clientMain[*].numApps 1
config testNetwork.clientMain[*].app[*].typename NetPerfMeter
config testNetwork.serverMain[*].numApps 1
config testNetwork.serverMain[*].app[*].typename NetPerfMeter
config testNetwork.clientMain[*].app[*].localPort 20000+ancestorIndex(0)
config testNetwork.clientMain[*].app[*].remotePort 8000+ancestorIndex(0)
config testNetwork.clientMain[*].app[*].remoteAddress "\"testNetwork.serverMain[\" + string(ancestorIndex(1)) + \"]%ppp0\""
config testNetwork.clientMain[*].app[*].primaryPath "\"testNetwork.serverMain[\" + string(ancestorIndex(1)) + \"]%ppp0\""
config testNetwork.serverMain[*].app[*].localPort 8000+ancestorIndex(0)
config testNetwork.*.sctp.arwnd 5000000
config testNetwork.*.sctp.hbInterval "30 s"
config testNetwork.*.sctp.enableHeartbeats true
config testNetwork.*.tcp.typename Tcp
config testNetwork.*.tcp.advertisedWindow 5000000
config testNetwork.*.tcp.mss 1452
config testNetwork.*.tcp.tcpAlgorithmClass "\"TcpReno\""
config testNetwork.*.tcp.sackSupport true
config testNetwork.*.tcp.timestampSupport true
config testNetwork.*.tcp.windowScalingSupport true
config testNetwork.*.tcp.delayedAcksEnabled true
config testNetwork.*.tcp.limitedTransmitEnabled true
config testNetwork.*.tcp.increasedIWEnabled false

scalar testNetwork.clientMain[0].app[0] "Total Measurement Duration" 600
scalar testNetwork.clientMain[0].app[0] "On-Off Cycles" 0
scalar testNetwork.clientMain[0].app[0] "Transmission Bit Rate Stream #0" 4965.1333333333
scalar testNetwork.clientMain[0].app[0] "Transmission Byte Rate Stream #0" 620.64166666667
scalar testNetwork.clientMain[0].app[0] "Transmission Message Rate Stream #0" 5.335
scalar testNetwork.clientMain[0].app[0] "Sent Bytes Stream #0" 372385
scalar testNetwork.clientMain[0].app[0] "Sent Messages Stream #0" 3201
scalar testNetwork.clientMain[0].app[0] "Reception Bit Rate Stream #0" 0
scalar testNetwork.clientMain[0].app[0] "Reception Byte Rate Stream #0" 0
scalar testNetwork.clientMain[0].app[0] "Reception Message Rate Stream #0" 0
scalar testNetwork.clientMain[0].app[0] "Received Bytes Stream #0" 0
scalar testNetwork.clientMain[0].app[0] "Received Messages Stream #0" 0
statistic testNetwork.clientMain[0].app[0] "Received Message Delay Stream #0"
field count 0
field mean -nan
field stddev nan
field min nan
field max nan
field sum 0
field sqrsum 0
attr unit s
bin	-inf	0
bin	0	0
bin	1	0
scalar testNetwork.clientMain[0].app[0] "Total Transmission Bit Rate" 4965.1333333333
scalar testNetwork.clientMain[0].app[0] "Total Transmission Byte Rate" 620.64166666667
scalar testNetwork.clientMain[0].app[0] "Total Transmission Message Rate" 5.335
scalar testNetwork.clientMain[0].app[0] "Total Sent Bytes" 372385
scalar testNetwork.clientMain[0].app[0] "Total Sent Messages" 3201
scalar testNetwork.clientMain[0].app[0] "Total Reception Bit Rate" 0
scalar testNetwork.clientMain[0].app[0] "Total Reception Byte Rate" 0
scalar testNetwork.clientMain[0].app[0] "Total Reception Message Rate" 0
scalar testNetwork.clientMain[0].app[0] "Total Received Bytes" 0
scalar testNetwork.clientMain[0].app[0] "Total Received Messages" 0
scalar testNetwork.serverMain[0].app[0] "Total Measurement Duration" 600
scalar testNetwork.serverMain[0].app[0] "On-Off Cycles" 0
scalar testNetwork.serverMain[0].app[0] "Transmission Bit Rate Stream #0" 0
scalar testNetwork.serverMain[0].app[0] "Transmission Byte Rate Stream #0" 0
scalar testNetwork.serverMain[0].app[0] "Transmission Message Rate Stream #0" 0
scalar testNetwork.serverMain[0].app[0] "Sent Bytes Stream #0" 0
scalar testNetwork.serverMain[0].app[0] "Sent Messages Stream #0" 0
scalar testNetwork.serverMain[0].app[0] "Reception Bit Rate Stream #0" 4965.1333333333
scalar testNetwork.serverMain[0].app[0] "Reception Byte Rate Stream #0" 620.64166666667
scalar testNetwork.serverMain[0].app[0] "Reception Message Rate Stream #0" 3.0383333333333
scalar testNetwork.serverMain[0].app[0] "Received Bytes Stream #0" 372385
scalar testNetwork.serverMain[0].app[0] "Received Messages Stream #0" 1823
statistic testNetwork.serverMain[0].app[0] "Received Message Delay Stream #0"
field count 3303
field mean 0.096562337196488
field stddev 0.071338325218457
field min 0.01045492
field max 0.2355584
field sum 318.94539976
field sqrsum 47.602508480599
attr unit s
bin	-inf	0
bin	0	0
bin	0.005	0
bin	0.01	731
bin	0.015	58
bin	0.02	67
bin	0.025	58
bin	0.03	92
bin	0.035	65
bin	0.04	59
bin	0.045	57
bin	0.05	54
bin	0.055	61
bin	0.06	53
bin	0.065	56
bin	0.07	52
bin	0.075	55
bin	0.08	48
bin	0.085	68
bin	0.09	60
bin	0.095	49
bin	0.1	65
bin	0.105	63
bin	0.11	58
bin	0.115	70
bin	0.12	70
bin	0.125	75
bin	0.13	64
bin	0.135	62
bin	0.14	66
bin	0.145	63
bin	0.15	47
bin	0.155	59
bin	0.16	61
bin	0.165	53
bin	0.17	54
bin	0.175	56
bin	0.18	46
bin	0.185	64
bin	0.19	57
bin	0.195	52
bin	0.2	55
bin	0.205	66
bin	0.21	65
bin	0.215	72
bin	0.22	32
bin	0.225	44
bin	0.23	19
bin	0.235	2
bin	0.24	0
bin	0.245	0
bin	0.25	0
bin	0.255	0
bin	0.26	0
bin	0.265	0
bin	0.27	0
bin	0.275	0
bin	0.28	0
bin	0.285	0
bin	0.29	0
scalar testNetwork.serverMain[0].app[0] "Total Transmission Bit Rate" 0
scalar testNetwork.serverMain[0].app[0] "Total Transmission Byte Rate" 0
scalar testNetwork.serverMain[0].app[0] "Total Transmission Message Rate" 0
scalar testNetwork.serverMain[0].app[0] "Total Sent Bytes" 0
scalar testNetwork.serverMain[0].app[0] "Total Sent Messages" 0
scalar testNetwork.serverMain[0].app[0] "Total Reception Bit Rate" 4965.1333333333
scalar testNetwork.serverMain[0].app[0] "Total Reception Byte Rate" 620.64166666667
scalar testNetwork.serverMain[0].app[0] "Total Reception Message Rate" 3.0383333333333
scalar testNetwork.serverMain[0].app[0] "Total Received Bytes" 372385
scalar testNetwork.serverMain[0].app[0] "Total Received Messages" 1823
scalar testNetwork.westernBorderRouter.lo[0].lo rcvdPkFromHl:count 0
attr interpolationmode none
attr recordingmode count
attr source packetReceivedFromUpper
attr title "packets received from higher layer, count"
scalar testNetwork.westernBorderRouter.lo[0].lo rcvdPkFromHl:sum(packetBytes) 0
attr interpolationmode none
attr recordingmode sum(packetBytes)
attr source packetReceivedFromUpper
attr title "packets received from higher layer, sum(packetBytes)"
scalar testNetwork.westernBorderRouter.lo[0].lo passedUpPk:count 0
attr interpolationmode none
attr recordingmode count
attr source packetSentToUpper
attr title "packets passed to higher layer, count"
scalar testNetwork.westernBorderRouter.lo[0].lo passedUpPk:sum(packetBytes) 0
attr interpolationmode none
attr recordingmode sum(packetBytes)
attr source packetSentToUpper
attr title "packets passed to higher layer, sum(packetBytes)"
scalar testNetwork.westernBorderRouter.lo[0] packetDropInterfaceDown:count 0
attr interpolationmode none
attr recordingmode count
attr source packetDropReasonIsInterfaceDown(packetDropped)
attr title "packet drops: interface down, count"
scalar testNetwork.westernBorderRouter.lo[0] packetDropInterfaceDown:sum(packetBytes) 0
attr interpolationmode none
attr recordingmode sum(packetBytes)
attr source packetDropReasonIsInterfaceDown(packetDropped)
attr title "packet drops: interface down, sum(packetBytes)"
scalar testNetwork.westernBorderRouter.lo[0] packetDropNoCarrier:count 0
attr interpolationmode none
attr recordingmode count
attr source packetDropReasonIsNoCarrier(packetDropped)
attr title "packet drops: no carrier, count"
scalar testNetwork.westernBorderRouter.lo[0] packetDropNoCarrier:sum(packetBytes) 0
attr interpolationmode none
attr recordingmode sum(packetBytes)
attr source packetDropReasonIsNoCarrier(packetDropped)
attr title "packet drops: no carrier, sum(packetBytes)"
scalar testNetwork.westernBorderRouter.ppp[0].queue queueLength:last 0
attr autoWarmupFilter false
attr interpolationmode sample-hold
attr recordingmode last
attr source "warmup(atomic(constant0(packetPushEnded) + count(packetPushStarted) - count(packetPulled) - count(packetRemoved) - count(packetDropped)))"
attr title "queue length, last"
attr unit pk
scalar testNetwork.westernBorderRouter.ppp[0].queue queueLength:max 0
attr autoWarmupFilter false
attr interpolationmode sample-hold
attr recordingmode max
attr source "warmup(atomic(constant0(packetPushEnded) + count(packetPushStarted) - count(packetPulled) - count(packetRemoved) - count(packetDropped)))"
attr title "queue length, max"
attr unit pk
scalar testNetwork.westernBorderRouter.ppp[0].queue queueLength:timeavg 0
attr autoWarmupFilter false
attr interpolationmode sample-hold
attr recordingmode timeavg
attr source "warmup(atomic(constant0(packetPushEnded) + count(packetPushStarted) - count(packetPulled) - count(packetRemoved) - count(packetDropped)))"
attr title "queue length, timeavg"
attr unit pk
scalar testNetwork.westernBorderRouter.ppp[0].queue queueBitLength:last 0
attr autoWarmupFilter false
attr interpolationmode sample-hold
attr recordingmode last
attr source "warmup(atomic(constant0(packetPushEnded) + sum(packetLength(packetPushStarted)) - sum(packetLength(packetPulled)) - sum(packetLength(packetRemoved)) - sum(packetLength(packetDropped))))"
attr title "queue bit length, last"
attr unit b
scalar testNetwork.westernBorderRouter.ppp[0].queue queueBitLength:max 0
attr autoWarmupFilter false
attr interpolationmode sample-hold
attr recordingmode max
attr source "warmup(atomic(constant0(packetPushEnded) + sum(packetLength(packetPushStarted)) - sum(packetLength(packetPulled)) - sum(packetLength(packetRemoved)) - sum(packetLength(packetDropped))))"
attr title "queue bit length, max"
attr unit b
scalar testNetwork.westernBorderRouter.ppp[0].queue queueBitLength:timeavg 0
attr autoWarmupFilter false
attr interpolationmode sample-hold
attr recordingmode timeavg
attr source "warmup(atomic(constant0(packetPushEnded) + sum(packetLength(packetPushStarted)) - sum(packetLength(packetPulled)) - sum(packetLength(packetRemoved)) - sum(packetLength(packetDropped))))"
attr title "queue bit length, timeavg"
attr unit b
statistic testNetwork.westernBorderRouter.ppp[0].queue queueingTime:histogram
field count 1977
field mean 0
field stddev 0
field min 0
field max 0
field sum 0
field sqrsum 0
attr interpolationmode none
attr recordingmode histogram
attr source queueingTime(packetPulled)
attr title "queueing times"
attr unit s
bin	-inf	0
bin	-0.5	0
bin	-0.48	0
bin	-0.46	0
bin	-0.44	0
bin	-0.42	0
bin	-0.4	0
bin	-0.38	0
bin	-0.36	0
bin	-0.34	0
bin	-0.32	0
bin	-0.3	0
bin	-0.28	0
bin	-0.26	0
bin	-0.24	0
bin	-0.22	0
bin	-0.2	0
bin	-0.18	0
bin	-0.16	0
bin	-0.14	0
bin	-0.12	0
bin	-0.1	0
bin	-0.08	0
bin	-0.06	0
bin	-0.04	0
bin	-0.02	0
bin	0	1977
bin	0.02	0
bin	0.04	0
bin	0.06	0
bin	0.08	0
bin	0.1	0
bin	0.12	0
bin	0.14	0
bin	0.16	0
bin	0.18	0
bin	0.2	0
bin	0.22	0
bin	0.24	0
bin	0.26	0
bin	0.28	0
bin	0.3	0
bin	0.32	0
bin	0.34	0
bin	0.36	0
bin	0.38	0
bin	0.4	0
bin	0.42	0
bin	0.44	0
bin	0.46	0
bin	0.48	0
bin	0.5	0
scalar testNetwork.westernBorderRouter.ppp[0].queue outgoingPackets:count 1977
attr recordingmode count
attr source packetPulled
attr title "outgoing packets, count"
attr unit pk
scalar testNetwork.westernBorderRouter.ppp[0].queue outgoingPacketLengths:sum 4774848
attr interpolationmode none
attr recordingmode sum
attr source packetLength(packetPulled)
attr title "outgoing packet lengths, sum"
attr unit b
statistic testNetwork.westernBorderRouter.ppp[0].queue outgoingPacketLengths:histogram
field count 1977
field mean 2415.1987860395
field stddev 3422.8834314451
field min 320
field max 11936
field sum 4774848
field sqrsum 34683281920
attr interpolationmode none
attr recordingmode histogram
attr source packetLength(packetPulled)
attr title "outgoing packet lengths"
attr unit b
bin	-inf	0
bin	0	0
bin	200	1
bin	400	289
bin	600	313
bin	800	446
bin	1000	165
bin	1200	132
bin	1400	92
bin	1600	62
bin	1800	36
bin	2000	34
bin	2200	28
bin	2400	21
bin	2600	10
bin	2800	15
bin	3000	14
bin	3200	11
bin	3400	4
bin	3600	7
bin	3800	6
bin	4000	7
bin	4200	5
bin	4400	10
bin	4600	6
bin	4800	3
bin	5000	4
bin	5200	5
bin	5400	5
bin	5600	2
bin	5800	3
bin	6000	4
bin	6200	1
bin	6400	4
bin	6600	3
bin	6800	3
bin	7000	2
bin	7200	1
bin	7400	1
bin	7600	1
bin	7800	1
bin	8000	0
bin	8200	0
bin	8400	2
bin	8600	2
bin	8800	0
bin	9000	0
bin	9200	4
bin	9400	2
bin	9600	2
bin	9800	0
bin	10000	7
bin	10200	5
bin	10400	2
bin	10600	1
bin	10800	2
bin	11000	5
bin	11200	2
bin	11400	2
bin	11600	0
bin	11800	182
bin	12000	0
bin	12200	0
bin	12400	0
bin	12600	0
bin	12800	0
bin	13000	0
bin	13200	0
bin	13400	0
bin	13600	0
bin	13800	0
bin	14000	0
bin	14200	0
bin	14400	0
bin	14600	0
bin	14800	0
bin	15000	0
statistic testNetwork.westernBorderRouter.ppp[0].queue flowQueueingTime:histogram
field count 0
field mean -nan
field stddev nan
field min nan
field max nan
field sum 0
field sqrsum 0
attr interpolationmode none
attr recordingmode histogram
attr source queueingTime(demuxFlow(packetPulled))
attr title "flow queueing times"
attr unit s
bin	-inf	0
bin	0	0
bin	1	0
scalar testNetwork.westernBorderRouter.ppp[0].queue incomingPackets:count 1977
attr recordingmode count
attr source packetPushStarted
attr title "incoming packets, count"
attr unit pk
scalar testNetwork.westernBorderRouter.ppp[0].queue incomingPacketLengths:sum 4774848
attr interpolationmode none
attr recordingmode sum
attr source packetLength(packetPushStarted)
attr title "incoming packet lengths, sum"
attr unit b
statistic testNetwork.westernBorderRouter.ppp[0].queue incomingPacketLengths:histogram
field count 1977
field mean 2415.1987860395
field stddev 3422.8834314451
field min 320
field max 11936
field sum 4774848
field sqrsum 34683281920
attr interpolationmode none
attr recordingmode histogram
attr source packetLength(packetPushStarted)
attr title "incoming packet lengths"
attr unit b
bin	-inf	0
bin	0	0
bin	200	1
bin	400	289
bin	600	313
bin	800	446
bin	1000	165
bin	1200	132
bin	1400	92
bin	1600	62
bin	1800	36
bin	2000	34
bin	2200	28
bin	2400	21
bin	2600	10
bin	2800	15
bin	3000	14
bin	3200	11
bin	3400	4
bin	3600	7
bin	3800	6
bin	4000	7
bin	4200	5
bin	4400	10
bin	4600	6
bin	4800	3
bin	5000	4
bin	5200	5
bin	5400	5
bin	5600	2
bin	5800	3
bin	6000	4
bin	6200	1
bin	6400	4
bin	6600	3
bin	6800	3
bin	7000	2
bin	7200	1
bin	7400	1
bin	7600	1
bin	7800	1
bin	8000	0
bin	8200	0
bin	8400	2
bin	8600	2
bin	8800	0
bin	9000	0
bin	9200	4
bin	9400	2
bin	9600	2
bin	9800	0
bin	10000	7
bin	10200	5
bin	10400	2
bin	10600	1
bin	10800	2
bin	11000	5
bin	11200	2
bin	11400	2
bin	11600	0
bin	11800	182
bin	12000	0
bin	12200	0
bin	12400	0
bin	12600	0
bin	12800	0
bin	13000	0
bin	13200	0
bin	13400	0
bin	13600	0
bin	13800	0
bin	14000	0
bin	14200	0
bin	14400	0
bin	14600	0
bin	14800	0
bin	15000	0
scalar testNetwork.westernBorderRouter.ppp[0].queue droppedPacketsQueueOverflow:count 0
attr interpolationmode none
attr recordingmode count
attr source packetDropReasonIsQueueOverflow(packetDropped)
attr title "dropped packets: queue overflow, count"
attr unit pk
scalar testNetwork.westernBorderRouter.ppp[0].queue droppedPacketLengthsQueueOverflow:sum 0
attr interpolationmode none
attr recordingmode sum
attr source packetLength(packetDropReasonIsQueueOverflow(packetDropped))
attr title "dropped packet lengths: queue overflow, sum"
attr unit b
scalar testNetwork.westernBorderRouter.ppp[0].ppp transmissionState:timeavg 1.3569857341706e-06
attr interpolationmode sample-hold
attr recordingmode timeavg
attr source transmissionStateChanged
attr title "tx state, timeavg"
scalar testNetwork.westernBorderRouter.ppp[0].ppp rxPkOk:count 1856
attr interpolationmode none
attr recordingmode count
attr source rxPkOk
attr title "packets received OK, count"
scalar testNetwork.westernBorderRouter.ppp[0].ppp rxPkOk:sum(packetBytes) 109512
attr interpolationmode none
attr recordingmode sum(packetBytes)
attr source rxPkOk
attr title "packets received OK, sum(packetBytes)"
scalar testNetwork.westernBorderRouter.ppp[0].ppp txPk:count 1977
attr interpolationmode none
attr recordingmode count
attr source packetSentToLower
attr title "packets transmitted, count"
scalar testNetwork.westernBorderRouter.ppp[0].ppp txPk:sum(packetBytes) 610695
attr interpolationmode none
attr recordingmode sum(packetBytes)
attr source packetSentToLower
attr title "packets transmitted, sum(packetBytes)"
scalar testNetwork.westernBorderRouter.ppp[0].ppp rcvdPkFromHl:count 1977
attr interpolationmode none
attr recordingmode count
attr source packetReceivedFromUpper
attr title "packets received from higher layer, count"
scalar testNetwork.westernBorderRouter.ppp[0].ppp rcvdPkFromHl:sum(packetBytes) 596856
attr interpolationmode none
attr recordingmode sum(packetBytes)
attr source packetReceivedFromUpper
attr title "packets received from higher layer, sum(packetBytes)"
scalar testNetwork.westernBorderRouter.ppp[0].ppp passedUpPk:count 1856
attr interpolationmode none
attr recordingmode count
attr source packetSentToUpper
attr title "packets passed to higher layer, count"
scalar testNetwork.westernBorderRouter.ppp[0].ppp passedUpPk:sum(packetBytes) 96520
attr interpolationmode none
attr recordingmode sum(packetBytes)
attr source packetSentToUpper
attr title "packets passed to higher layer, sum(packetBytes)"
scalar testNetwork.westernBorderRouter.ppp[0].ppp packetDropIncorrectlyReceived:count 0
attr interpolationmode none
attr recordingmode count
attr source packetDropReasonIsIncorrectlyReceived(packetDropped)
attr title "packet drop: incorrectly received, count"
scalar testNetwork.westernBorderRouter.ppp[0].ppp packetDropIncorrectlyReceived:sum(packetBytes) 0
attr interpolationmode none
attr recordingmode sum(packetBytes)
attr source packetDropReasonIsIncorrectlyReceived(packetDropped)
attr title "packet drop: incorrectly received, sum(packetBytes)"
scalar testNetwork.westernBorderRouter.ppp[0].ppp packetDropInterfaceDown:count 0
attr interpolationmode none
attr recordingmode count
attr source packetDropReasonIsInterfaceDown(packetDropped)
attr title "packet drop: interface down, count"
scalar testNetwork.westernBorderRouter.ppp[0].ppp packetDropInterfaceDown:sum(packetBytes) 0
attr interpolationmode none
attr recordingmode sum(packetBytes)
attr source packetDropReasonIsInterfaceDown(packetDropped)
attr title "packet drop: interface down, sum(packetBytes)"
scalar testNetwork.westernBorderRouter.ppp[0] packetDropInterfaceDown:count 0
attr interpolationmode none
attr recordingmode count
attr source packetDropReasonIsInterfaceDown(packetDropped)
attr title "packet drops: interface down, count"
scalar testNetwork.westernBorderRouter.ppp[0] packetDropInterfaceDown:sum(packetBytes) 0
attr interpolationmode none
attr recordingmode sum(packetBytes)
attr source packetDropReasonIsInterfaceDown(packetDropped)
attr title "packet drops: interface down, sum(packetBytes)"
scalar testNetwork.westernBorderRouter.ppp[0] packetDropNoCarrier:count 0
attr interpolationmode none
attr recordingmode count
attr source packetDropReasonIsNoCarrier(packetDropped)
attr title "packet drops: no carrier, count"
scalar testNetwork.westernBorderRouter.ppp[0] packetDropNoCarrier:sum(packetBytes) 0
attr interpolationmode none
attr recordingmode sum(packetBytes)
attr source packetDropReasonIsNoCarrier(packetDropped)
attr title "packet drops: no carrier, sum(packetBytes)"
scalar testNetwork.westernBorderRouter.ppp[1].queue queueLength:last 0
attr autoWarmupFilter false
attr interpolationmode sample-hold
attr recordingmode last
attr source "warmup(atomic(constant0(packetPushEnded) + count(packetPushStarted) - count(packetPulled) - count(packetRemoved) - count(packetDropped)))"
attr title "queue length, last"
attr unit pk
scalar testNetwork.westernBorderRouter.ppp[1].queue queueLength:max 0
attr autoWarmupFilter false
attr interpolationmode sample-hold
attr recordingmode max
attr source "warmup(atomic(constant0(packetPushEnded) + count(packetPushStarted) - count(packetPulled) - count(packetRemoved) - count(packetDropped)))"
attr title "queue length, max"
attr unit pk
scalar testNetwork.westernBorderRouter.ppp[1].queue queueLength:timeavg 0
attr autoWarmupFilter false
attr interpolationmode sample-hold
attr recordingmode timeavg
attr source "warmup(atomic(constant0(packetPushEnded) + count(packetPushStarted) - count(packetPulled) - count(packetRemoved) - count(packetDropped)))"
attr title "queue length, timeavg"
attr unit pk
scalar testNetwork.westernBorderRouter.ppp[1].queue queueBitLength:last 0
attr autoWarmupFilter false
attr interpolationmode sample-hold
attr recordingmode last
attr source "warmup(atomic(constant0(packetPushEnded) + sum(packetLength(packetPushStarted)) - sum(packetLength(packetPulled)) - sum(packetLength(packetRemoved)) - sum(packetLength(packetDropped))))"
attr title "queue bit length, last"
attr unit b
scalar testNetwork.westernBorderRouter.ppp[1].queue queueBitLength:max 0
attr autoWarmupFilter false
attr interpolationmode sample-hold
attr recordingmode max
attr source "warmup(atomic(constant0(packetPushEnded) + sum(packetLength(packetPushStarted)) - sum(packetLength(packetPulled)) - sum(packetLength(packetRemoved)) - sum(packetLength(packetDropped))))"
attr title "queue bit length, max"
attr unit b
scalar testNetwork.westernBorderRouter.ppp[1].queue queueBitLength:timeavg 0
attr autoWarmupFilter false
attr interpolationmode sample-hold
attr recordingmode timeavg
attr source "warmup(atomic(constant0(packetPushEnded) + sum(packetLength(packetPushStarted)) - sum(packetLength(packetPulled)) - sum(packetLength(packetRemoved)) - sum(packetLength(packetDropped))))"
attr title "queue bit length, timeavg"
attr unit b
statistic testNetwork.westernBorderRouter.ppp[1].queue queueingTime:histogram
field count 1856
field mean 0
field stddev 0
field min 0
field max 0
field sum 0
field sqrsum 0
attr interpolationmode none
attr recordingmode histogram
attr source queueingTime(packetPulled)
attr title "queueing times"
attr unit s
bin	-inf	0
bin	-0.5	0
bin	-0.48	0
bin	-0.46	0
bin	-0.44	0
bin	-0.42	0
bin	-0.4	0
bin	-0.38	0
bin	-0.36	0
bin	-0.34	0
bin	-0.32	0
bin	-0.3	0
bin	-0.28	0
bin	-0.26	0
bin	-0.24	0
bin	-0.22	0
bin	-0.2	0
bin	-0.18	0
bin	-0.16	0
bin	-0.14	0
bin	-0.12	0
bin	-0.1	0
bin	-0.08	0
bin	-0.06	0
bin	-0.04	0
bin	-0.02	0
bin	0	1856
bin	0.02	0
bin	0.04	0
bin	0.06	0
bin	0.08	0
bin	0.1	0
bin	0.12	0
bin	0.14	0
bin	0.16	0
bin	0.18	0
bin	0.2	0
bin	0.22	0
bin	0.24	0
bin	0.26	0
bin	0.28	0
bin	0.3	0
bin	0.32	0
bin	0.34	0
bin	0.36	0
bin	0.38	0
bin	0.4	0
bin	0.42	0
bin	0.44	0
bin	0.46	0
bin	0.48	0
bin	0.5	0
scalar testNetwork.westernBorderRouter.ppp[1].queue outgoingPackets:count 1856
attr recordingmode count
attr source packetPulled
attr title "outgoing packets, count"
attr unit pk
scalar testNetwork.westernBorderRouter.ppp[1].queue outgoingPacketLengths:sum 772160
attr interpolationmode none
attr recordingmode sum
attr source packetLength(packetPulled)
attr title "outgoing packet lengths, sum"
attr unit b
statistic testNetwork.westernBorderRouter.ppp[1].queue outgoingPacketLengths:histogram
field count 1856
field mean 416.03448275862
field stddev 1.4855627054179
field min 416
field max 480
field sum 772160
field sqrsum 321249280
attr interpolationmode none
attr recordingmode histogram
attr source packetLength(packetPulled)
attr title "outgoing packet lengths"
attr unit b
bin	-inf	0
bin	400	0
bin	402	0
bin	404	0
bin	406	0
bin	408	0
bin	410	0
bin	412	0
bin	414	0
bin	416	1855
bin	418	0
bin	420	0
bin	422	0
bin	424	0
bin	426	0
bin	428	0
bin	430	0
bin	432	0
bin	434	0
bin	436	0
bin	438	0
bin	440	0
bin	442	0
bin	444	0
bin	446	0
bin	448	0
bin	450	0
bin	452	0
bin	454	0
bin	456	0
bin	458	0
bin	460	0
bin	462	0
bin	464	0
bin	466	0
bin	468	0
bin	470	0
bin	472	0
bin	474	0
bin	476	0
bin	478	0
bin	480	1
bin	482	0
bin	484	0
bin	486	0
bin	488	0
bin	490	0
bin	492	0
bin	494	0
bin	496	0
statistic testNetwork.westernBorderRouter.ppp[1].queue flowQueueingTime:histogram
field count 0
field mean -nan
field stddev nan
field min nan
field max nan
field sum 0
field sqrsum 0
attr interpolationmode none
attr recordingmode histogram
attr source queueingTime(demuxFlow(packetPulled))
attr title "flow queueing times"
attr unit s
bin	-inf	0
bin	0	0
bin	1	0
scalar testNetwork.westernBorderRouter.ppp[1].queue incomingPackets:count 1856
attr recordingmode count
attr source packetPushStarted
attr title "incoming packets, count"
attr unit pk
scalar testNetwork.westernBorderRouter.ppp[1].queue incomingPacketLengths:sum 772160
attr interpolationmode none
attr recordingmode sum
attr source packetLength(packetPushStarted)
attr title "incoming packet lengths, sum"
attr unit b
statistic testNetwork.westernBorderRouter.ppp[1].queue incomingPacketLengths:histogram
field count 1856
field mean 416.03448275862
field stddev 1.4855627054179
field min 416
field max 480
field sum 772160
field sqrsum 321249280
attr interpolationmode none
attr recordingmode histogram
attr source packetLength(packetPushStarted)
attr title "incoming packet lengths"
attr unit b
bin	-inf	0
bin	400	0
bin	402	0
bin	404	0
bin	406	0
bin	408	0
bin	410	0
bin	412	0
bin	414	0
bin	416	1855
bin	418	0
bin	420	0
bin	422	0
bin	424	0
bin	426	0
bin	428	0
bin	430	0
bin	432	0
bin	434	0
bin	436	0
bin	438	0
bin	440	0
bin	442	0
bin	444	0
bin	446	0
bin	448	0
bin	450	0
bin	452	0
bin	454	0
bin	456	0
bin	458	0
bin	460	0
bin	462	0
bin	464	0
bin	466	0
bin	468	0
bin	470	0
bin	472	0
bin	474	0
bin	476	0
bin	478	0
bin	480	1
bin	482	0
bin	484	0
bin	486	0
bin	488	0
bin	490	0
bin	492	0
bin	494	0
bin	496	0
scalar testNetwork.westernBorderRouter.ppp[1].queue droppedPacketsQueueOverflow:count 0
attr interpolationmode none
attr recordingmode count
attr source packetDropReasonIsQueueOverflow(packetDropped)
attr title "dropped packets: queue overflow, count"
attr unit pk
scalar testNetwork.westernBorderRouter.ppp[1].queue droppedPacketLengthsQueueOverflow:sum 0
attr interpolationmode none
attr recordingmode sum
attr source packetLength(packetDropReasonIsQueueOverflow(packetDropped))
attr title "dropped packet lengths: queue overflow, sum"
attr unit b
scalar testNetwork.westernBorderRouter.ppp[1].ppp transmissionState:timeavg 2.4233048824153e-07
attr interpolationmode sample-hold
attr recordingmode timeavg
attr source transmissionStateChanged
attr title "tx state, timeavg"
scalar testNetwork.westernBorderRouter.ppp[1].ppp rxPkOk:count 1977
attr interpolationmode none
attr recordingmode count
attr source rxPkOk
attr title "packets received OK, count"
scalar testNetwork.westernBorderRouter.ppp[1].ppp rxPkOk:sum(packetBytes) 610695
attr interpolationmode none
attr recordingmode sum(packetBytes)
attr source rxPkOk
attr title "packets received OK, sum(packetBytes)"
scalar testNetwork.westernBorderRouter.ppp[1].ppp txPk:count 1856
attr interpolationmode none
attr recordingmode count
attr source packetSentToLower
attr title "packets transmitted, count"
scalar testNetwork.westernBorderRouter.ppp[1].ppp txPk:sum(packetBytes) 109512
attr interpolationmode none
attr recordingmode sum(packetBytes)
attr source packetSentToLower
attr title "packets transmitted, sum(packetBytes)"
scalar testNetwork.westernBorderRouter.ppp[1].ppp rcvdPkFromHl:count 1856
attr interpolationmode none
attr recordingmode count
attr source packetReceivedFromUpper
attr title "packets received from higher layer, count"
scalar testNetwork.westernBorderRouter.ppp[1].ppp rcvdPkFromHl:sum(packetBytes) 96520
attr interpolationmode none
attr recordingmode sum(packetBytes)
attr source packetReceivedFromUpper
attr title "packets received from higher layer, sum(packetBytes)"
scalar testNetwork.westernBorderRouter.ppp[1].ppp passedUpPk:count 1977
attr interpolationmode none
attr recordingmode count
attr source packetSentToUpper
attr title "packets passed to higher layer, count"
scalar testNetwork.westernBorderRouter.ppp[1].ppp passedUpPk:sum(packetBytes) 596856
attr interpolationmode none
attr recordingmode sum(packetBytes)
attr source packetSentToUpper
attr title "packets passed to higher layer, sum(packetBytes)"
scalar testNetwork.westernBorderRouter.ppp[1].ppp packetDropIncorrectlyReceived:count 0
attr interpolationmode none
attr recordingmode count
attr source packetDropReasonIsIncorrectlyReceived(packetDropped)
attr title "packet drop: incorrectly received, count"
scalar testNetwork.westernBorderRouter.ppp[1].ppp packetDropIncorrectlyReceived:sum(packetBytes) 0
attr interpolationmode none
attr recordingmode sum(packetBytes)
attr source packetDropReasonIsIncorrectlyReceived(packetDropped)
attr title "packet drop: incorrectly received, sum(packetBytes)"
scalar testNetwork.westernBorderRouter.ppp[1].ppp packetDropInterfaceDown:count 0
attr interpolationmode none
attr recordingmode count
attr source packetDropReasonIsInterfaceDown(packetDropped)
attr title "packet drop: interface down, count"
scalar testNetwork.westernBorderRouter.ppp[1].ppp packetDropInterfaceDown:sum(packetBytes) 0
attr interpolationmode none
attr recordingmode sum(packetBytes)
attr source packetDropReasonIsInterfaceDown(packetDropped)
attr title "packet drop: interface down, sum(packetBytes)"
scalar testNetwork.westernBorderRouter.ppp[1] packetDropInterfaceDown:count 0
attr interpolationmode none
attr recordingmode count
attr source packetDropReasonIsInterfaceDown(packetDropped)
attr title "packet drops: interface down, count"
scalar testNetwork.westernBorderRouter.ppp[1] packetDropInterfaceDown:sum(packetBytes) 0
attr interpolationmode none
attr recordingmode sum(packetBytes)
attr source packetDropReasonIsInterfaceDown(packetDropped)
attr title "packet drops: interface down, sum(packetBytes)"
scalar testNetwork.westernBorderRouter.ppp[1] packetDropNoCarrier:count 0
attr interpolationmode none
attr recordingmode count
attr source packetDropReasonIsNoCarrier(packetDropped)
attr title "packet drops: no carrier, count"
scalar testNetwork.westernBorderRouter.ppp[1] packetDropNoCarrier:sum(packetBytes) 0
attr interpolationmode none
attr recordingmode sum(packetBytes)
attr source packetDropReasonIsNoCarrier(packetDropped)
attr title "packet drops: no carrier, sum(packetBytes)"
scalar testNetwork.westernBorderRouter.ipv4.ip packetDropAddressResolutionFailed:count 0
attr interpolationmode none
attr recordingmode count
attr source packetDropReasonIsAddressResolutionFailed(packetDropped)
attr title "packet drop: address resolution failed, count"
scalar testNetwork.westernBorderRouter.ipv4.ip packetDropAddressResolutionFailed:sum(packetBytes) 0
attr interpolationmode none
attr recordingmode sum(packetBytes)
attr source packetDropReasonIsAddressResolutionFailed(packetDropped)
attr title "packet drop: address resolution failed, sum(packetBytes)"
scalar testNetwork.westernBorderRouter.ipv4.ip packetDropHopLimitReached:count 0
attr interpolationmode none
attr recordingmode count
attr source packetDropReasonIsHopLimitReached(packetDropped)
attr title "packet drop: hop limit reached, count"
scalar testNetwork.westernBorderRouter.ipv4.ip packetDropHopLimitReached:sum(packetBytes) 0
attr interpolationmode none
attr recordingmode sum(packetBytes)
attr source packetDropReasonIsHopLimitReached(packetDropped)
attr title "packet drop: hop limit reached, sum(packetBytes)"
scalar testNetwork.westernBorderRouter.ipv4.ip packetDropForwardingDisabled:count 0
attr interpolationmode none
attr recordingmode count
attr source packetDropReasonIsForwardingDisabled(packetDropped)
attr title "packet drop: forwarding disabled, count"
scalar testNetwork.westernBorderRouter.ipv4.ip packetDropForwardingDisabled:sum(packetBytes) 0
attr interpolationmode none
attr recordingmode sum(packetBytes)
attr source packetDropReasonIsForwardingDisabled(packetDropped)
attr title "packet drop: forwarding disabled, sum(packetBytes)"
scalar testNetwork.westernBorderRouter.ipv4.ip packetDropNoInterfaceFound:count 0
attr interpolationmode none
attr recordingmode count
attr source packetDropReasonIsNoInterfaceFound(packetDropped)
attr title "packet drop: no interface found, count"
scalar testNetwork.westernBorderRouter.ipv4.ip packetDropNoInterfaceFound:sum(packetBytes) 0
attr interpolationmode none
attr recordingmode sum(packetBytes)
attr source packetDropReasonIsNoInterfaceFound(packetDropped)
attr title "packet drop: no interface found, sum(packetBytes)"
scalar testNetwork.westernBorderRouter.ipv4.ip packetDropNoRouteFound:count 0
attr interpolationmode none
attr recordingmode count
attr source packetDropReasonIsNoRouteFound(packetDropped)
attr title "packet drop: no route found, count"
scalar testNetwork.westernBorderRouter.ipv4.ip packetDropNoRouteFound:sum(packetBytes) 0
attr interpolationmode none
attr recordingmode sum(packetBytes)
attr source packetDropReasonIsNoRouteFound(packetDropped)
attr title "packet drop: no route found, sum(packetBytes)"
scalar testNetwork.westernBorderRouter.ipv4.ip packetDropUndefined:count 0
attr interpolationmode none
attr recordingmode count
attr source packetDropReasonIsUndefined(packetDropped)
attr title "packet drop: undefined, count"
scalar testNetwork.westernBorderRouter.ipv4.ip packetDropUndefined:sum(packetBytes) 0
attr interpolationmode none
attr recordingmode sum(packetBytes)
attr source packetDropReasonIsUndefined(packetDropped)
attr title "packet drop: undefined, sum(packetBytes)"
scalar testNetwork.westernBorderRouter.ipv4.arp arpResolutionFailed:count 0
attr recordingmode count
attr title "ARP failed resolutions, count"
scalar testNetwork.westernBorderRouter.ipv4.arp arpResolutionCompleted:count 0
attr recordingmode count
attr title "ARP completed resolutions, count"
scalar testNetwork.westernBorderRouter.ipv4.arp arpResolutionInitiated:count 0
attr recordingmode count
attr title "ARP initiated resolutions, count"
scalar testNetwork.westernBorderRouter.ipv4.arp arpReplySent:count 0
attr recordingmode count
attr source arpReplySent
attr title "ARP replies sent, count"
scalar testNetwork.westernBorderRouter.ipv4.arp arpReplySent:sum(packetBytes) 0
attr recordingmode sum(packetBytes)
attr source arpReplySent
attr title "ARP replies sent, sum(packetBytes)"
scalar testNetwork.westernBorderRouter.ipv4.arp arpRequestSent:count 0
attr recordingmode count
attr source arpRequestSent
attr title "ARP request sent, count"
scalar testNetwork.westernBorderRouter.ipv4.arp arpRequestSent:sum(packetBytes) 0
attr recordingmode sum(packetBytes)
attr source arpRequestSent
attr title "ARP request sent, sum(packetBytes)"
scalar testNetwork.westernCoreRouter.lo[0].lo rcvdPkFromHl:count 0
attr interpolationmode none
attr recordingmode count
attr source packetReceivedFromUpper
attr title "packets received from higher layer, count"
scalar testNetwork.westernCoreRouter.lo[0].lo rcvdPkFromHl:sum(packetBytes) 0
attr interpolationmode none
attr recordingmode sum(packetBytes)
attr source packetReceivedFromUpper
attr title "packets received from higher layer, sum(packetBytes)"
scalar testNetwork.westernCoreRouter.lo[0].lo passedUpPk:count 0
attr interpolationmode none
attr recordingmode count
attr source packetSentToUpper
attr title "packets passed to higher layer, count"
scalar testNetwork.westernCoreRouter.lo[0].lo passedUpPk:sum(packetBytes) 0
attr interpolationmode none
attr recordingmode sum(packetBytes)
attr source packetSentToUpper
attr title "packets passed to higher layer, sum(packetBytes)"
scalar testNetwork.westernCoreRouter.lo[0] packetDropInterfaceDown:count 0
attr interpolationmode none
attr recordingmode count
attr source packetDropReasonIsInterfaceDown(packetDropped)
attr title "packet drops: interface down, count"
scalar testNetwork.westernCoreRouter.lo[0] packetDropInterfaceDown:sum(packetBytes) 0
attr interpolationmode none
attr recordingmode sum(packetBytes)
attr source packetDropReasonIsInterfaceDown(packetDropped)
attr title "packet drops: interface down, sum(packetBytes)"
scalar testNetwork.westernCoreRouter.lo[0] packetDropNoCarrier:count 0
attr interpolationmode none
attr recordingmode count
attr source packetDropReasonIsNoCarrier(packetDropped)
attr title "packet drops: no carrier, count"
scalar testNetwork.westernCoreRouter.lo[0] packetDropNoCarrier:sum(packetBytes) 0
attr interpolationmode none
attr recordingmode sum(packetBytes)
attr source packetDropReasonIsNoCarrier(packetDropped)
attr title "packet drops: no carrier, sum(packetBytes)"
scalar testNetwork.westernCoreRouter.ppp[0].queue.red outgoingPackets:count 1977
attr recordingmode count
attr source "merge(packetPushedOut, packetPulledOut)"
attr title "outgoing packets, count"
attr unit pk
scalar testNetwork.westernCoreRouter.ppp[0].queue.red outgoingPacketLengths:sum 4774848
attr interpolationmode none
attr recordingmode sum
attr source "packetLength(merge(packetPushedOut, packetPulledOut))"
attr title "outgoing packet lengths, sum"
attr unit b
statistic testNetwork.westernCoreRouter.ppp[0].queue.red outgoingPacketLengths:histogram
field count 1977
field mean 2415.1987860395
field stddev 3422.8834314451
field min 320
field max 11936
field sum 4774848
field sqrsum 34683281920
attr interpolationmode none
attr recordingmode histogram
attr source "packetLength(merge(packetPushedOut, packetPulledOut))"
attr title "outgoing packet lengths"
attr unit b
bin	-inf	0
bin	0	0
bin	200	1
bin	400	289
bin	600	313
bin	800	446
bin	1000	165
bin	1200	132
bin	1400	92
bin	1600	62
bin	1800	36
bin	2000	34
bin	2200	28
bin	2400	21
bin	2600	10
bin	2800	15
bin	3000	14
bin	3200	11
bin	3400	4
bin	3600	7
bin	3800	6
bin	4000	7
bin	4200	5
bin	4400	10
bin	4600	6
bin	4800	3
bin	5000	4
bin	5200	5
bin	5400	5
bin	5600	2
bin	5800	3
bin	6000	4
bin	6200	1
bin	6400	4
bin	6600	3
bin	6800	3
bin	7000	2
bin	7200	1
bin	7400	1
bin	7600	1
bin	7800	1
bin	8000	0
bin	8200	0
bin	8400	2
bin	8600	2
bin	8800	0
bin	9000	0
bin	9200	4
bin	9400	2
bin	9600	2
bin	9800	0
bin	10000	7
bin	10200	5
bin	10400	2
bin	10600	1
bin	10800	2
bin	11000	5
bin	11200	2
bin	11400	2
bin	11600	0
bin	11800	182
bin	12000	0
bin	12200	0
bin	12400	0
bin	12600	0
bin	12800	0
bin	13000	0
bin	13200	0
bin	13400	0
bin	13600	0
bin	13800	0
bin	14000	0
bin	14200	0
bin	14400	0
bin	14600	0
bin	14800	0
bin	15000	0
scalar testNetwork.westernCoreRouter.ppp[0].queue.red flowOutgoingPacketLengths:sum 0
attr interpolationmode none
attr recordingmode sum
attr source "packetLength(demuxFlow(merge(packetPushedOut, packetPulledOut)))"
attr title "flow specific outgoing packet lengths, sum"
attr unit b
statistic testNetwork.westernCoreRouter.ppp[0].queue.red flowOutgoingPacketLengths:histogram
field count 0
field mean -nan
field stddev nan
field min nan
field max nan
field sum 0
field sqrsum 0
attr interpolationmode none
attr recordingmode histogram
attr source "packetLength(demuxFlow(merge(packetPushedOut, packetPulledOut)))"
attr title "flow specific outgoing packet lengths"
attr unit b
bin	-inf	0
bin	0	0
bin	1	0
scalar testNetwork.westernCoreRouter.ppp[0].queue.red incomingPackets:count 1977
attr recordingmode count
attr source "merge(packetPushedIn, packetPulledIn)"
attr title "incoming packets, count"
attr unit pk
scalar testNetwork.westernCoreRouter.ppp[0].queue.red incomingPacketLengths:sum 4774848
attr interpolationmode none
attr recordingmode sum
attr source "packetLength(merge(packetPushedIn, packetPulledIn))"
attr title "incoming packet lengths, sum"
attr unit b
statistic testNetwork.westernCoreRouter.ppp[0].queue.red incomingPacketLengths:histogram
field count 1977
field mean 2415.1987860395
field stddev 3422.8834314451
field min 320
field max 11936
field sum 4774848
field sqrsum 34683281920
attr interpolationmode none
attr recordingmode histogram
attr source "packetLength(merge(packetPushedIn, packetPulledIn))"
attr title "incoming packet lengths"
attr unit b
bin	-inf	0
bin	0	0
bin	200	1
bin	400	289
bin	600	313
bin	800	446
bin	1000	165
bin	1200	132
bin	1400	92
bin	1600	62
bin	1800	36
bin	2000	34
bin	2200	28
bin	2400	21
bin	2600	10
bin	2800	15
bin	3000	14
bin	3200	11
bin	3400	4
bin	3600	7
bin	3800	6
bin	4000	7
bin	4200	5
bin	4400	10
bin	4600	6
bin	4800	3
bin	5000	4
bin	5200	5
bin	5400	5
bin	5600	2
bin	5800	3
bin	6000	4
bin	6200	1
bin	6400	4
bin	6600	3
bin	6800	3
bin	7000	2
bin	7200	1
bin	7400	1
bin	7600	1
bin	7800	1
bin	8000	0
bin	8200	0
bin	8400	2
bin	8600	2
bin	8800	0
bin	9000	0
bin	9200	4
bin	9400	2
bin	9600	2
bin	9800	0
bin	10000	7
bin	10200	5
bin	10400	2
bin	10600	1
bin	10800	2
bin	11000	5
bin	11200	2
bin	11400	2
bin	11600	0
bin	11800	182
bin	12000	0
bin	12200	0
bin	12400	0
bin	12600	0
bin	12800	0
bin	13000	0
bin	13200	0
bin	13400	0
bin	13600	0
bin	13800	0
bin	14000	0
bin	14200	0
bin	14400	0
bin	14600	0
bin	14800	0
bin	15000	0
scalar testNetwork.westernCoreRouter.ppp[0].queue.red flowIncomingPacketLengths:sum 0
attr interpolationmode none
attr recordingmode sum
attr source "packetLength(demuxFlow(merge(packetPushedIn, packetPulledIn)))"
attr title "flow specific incoming packet lengths, sum"
attr unit b
statistic testNetwork.westernCoreRouter.ppp[0].queue.red flowIncomingPacketLengths:histogram
field count 0
field mean -nan
field stddev nan
field min nan
field max nan
field sum 0
field sqrsum 0
attr interpolationmode none
attr recordingmode histogram
attr source "packetLength(demuxFlow(merge(packetPushedIn, packetPulledIn)))"
attr title "flow specific incoming packet lengths"
attr unit b
bin	-inf	0
bin	0	0
bin	1	0
scalar testNetwork.westernCoreRouter.ppp[0].queue.red droppedPackets:count 0
attr recordingmode count
attr source packetDropped
attr title "dropped packets, count"
attr unit pk
scalar testNetwork.westernCoreRouter.ppp[0].queue.red droppedPacketLengths:sum 0
attr interpolationmode none
attr recordingmode sum
attr source packetLength(packetDropped)
attr title "dropped packet lengths, sum"
attr unit b
statistic testNetwork.westernCoreRouter.ppp[0].queue.red droppedPacketLengths:histogram
field count 0
field mean -nan
field stddev nan
field min nan
field max nan
field sum 0
field sqrsum 0
attr interpolationmode none
attr recordingmode histogram
attr source packetLength(packetDropped)
attr title "dropped packet lengths"
attr unit b
bin	-inf	0
bin	0	0
bin	1	0
scalar testNetwork.westernCoreRouter.ppp[0].queue.red flowDroppedPacketLengths:sum 0
attr interpolationmode none
attr recordingmode sum
attr source packetLength(demuxFlow(packetDropped))
attr title "flow specific dropped packet lengths, sum"
attr unit b
statistic testNetwork.westernCoreRouter.ppp[0].queue.red flowDroppedPacketLengths:histogram
field count 0
field mean -nan
field stddev nan
field min nan
field max nan
field sum 0
field sqrsum 0
attr interpolationmode none
attr recordingmode histogram
attr source packetLength(demuxFlow(packetDropped))
attr title "flow specific dropped packet lengths"
attr unit b
bin	-inf	0
bin	0	0
bin	1	0
scalar testNetwork.westernCoreRouter.ppp[0].queue.red packetDropCongestion:count 0
attr interpolationmode none
attr recordingmode count
attr source packetDropReasonIsCongestion(packetDropped)
attr title "packet drop: congestion, count"
scalar testNetwork.westernCoreRouter.ppp[0].queue.red packetDropCongestion:sum(packetBytes) 0
attr interpolationmode none
attr recordingmode sum(packetBytes)
attr source packetDropReasonIsCongestion(packetDropped)
attr title "packet drop: congestion, sum(packetBytes)"
scalar testNetwork.westernCoreRouter.ppp[0].queue.fifo queueLength:last 0
attr autoWarmupFilter false
attr interpolationmode sample-hold
attr recordingmode last
attr source "warmup(atomic(constant0(packetPushEnded) + count(packetPushStarted) - count(packetPulled) - count(packetRemoved) - count(packetDropped)))"
attr title "queue length, last"
attr unit pk
scalar testNetwork.westernCoreRouter.ppp[0].queue.fifo queueLength:max 4
attr autoWarmupFilter false
attr interpolationmode sample-hold
attr recordingmode max
attr source "warmup(atomic(constant0(packetPushEnded) + count(packetPushStarted) - count(packetPulled) - count(packetRemoved) - count(packetDropped)))"
attr title "queue length, max"
attr unit pk
scalar testNetwork.westernCoreRouter.ppp[0].queue.fifo queueLength:timeavg 4.3152388521412e-05
attr autoWarmupFilter false
attr interpolationmode sample-hold
attr recordingmode timeavg
attr source "warmup(atomic(constant0(packetPushEnded) + count(packetPushStarted) - count(packetPulled) - count(packetRemoved) - count(packetDropped)))"
attr title "queue length, timeavg"
attr unit pk
scalar testNetwork.westernCoreRouter.ppp[0].queue.fifo queueBitLength:last 0
attr autoWarmupFilter false
attr interpolationmode sample-hold
attr recordingmode last
attr source "warmup(atomic(constant0(packetPushEnded) + sum(packetLength(packetPushStarted)) - sum(packetLength(packetPulled)) - sum(packetLength(packetRemoved)) - sum(packetLength(packetDropped))))"
attr title "queue bit length, last"
attr unit b
scalar testNetwork.westernCoreRouter.ppp[0].queue.fifo queueBitLength:max 47744
attr autoWarmupFilter false
attr interpolationmode sample-hold
attr recordingmode max
attr source "warmup(atomic(constant0(packetPushEnded) + sum(packetLength(packetPushStarted)) - sum(packetLength(packetPulled)) - sum(packetLength(packetRemoved)) - sum(packetLength(packetDropped))))"
attr title "queue bit length, max"
attr unit b
scalar testNetwork.westernCoreRouter.ppp[0].queue.fifo queueBitLength:timeavg 0.51506690939157
attr autoWarmupFilter false
attr interpolationmode sample-hold
attr recordingmode timeavg
attr source "warmup(atomic(constant0(packetPushEnded) + sum(packetLength(packetPushStarted)) - sum(packetLength(packetPulled)) - sum(packetLength(packetRemoved)) - sum(packetLength(packetDropped))))"
attr title "queue bit length, timeavg"
attr unit b
statistic testNetwork.westernCoreRouter.ppp[0].queue.fifo queueingTime:histogram
field count 1977
field mean 7.857794132524e-05
field stddev 0.00042799609294759
field min 0
field max 0.00478481
field sum 0.15534859
field sqrsum 0.0003741719478129
attr interpolationmode none
attr recordingmode histogram
attr source queueingTime(packetPulled)
attr title "queueing times"
attr unit s
bin	-inf	0
bin	0	1895
bin	0.0001	0
bin	0.0002	0
bin	0.0003	0
bin	0.0004	0
bin	0.0005	0
bin	0.0006	0
bin	0.0007	0
bin	0.0008	0
bin	0.0009	1
bin	0.001	1
bin	0.0011	46
bin	0.0012	0
bin	0.0013	0
bin	0.0014	0
bin	0.0015	0
bin	0.0016	0
bin	0.0017	0
bin	0.0018	0
bin	0.0019	0
bin	0.002	0
bin	0.0021	0
bin	0.0022	0
bin	0.0023	22
bin	0.0024	0
bin	0.0025	0
bin	0.0026	0
bin	0.0027	0
bin	0.0028	0
bin	0.0029	0
bin	0.003	0
bin	0.0031	0
bin	0.0032	0
bin	0.0033	0
bin	0.0034	0
bin	0.0035	9
bin	0.0036	0
bin	0.0037	0
bin	0.0038	0
bin	0.0039	0
bin	0.004	0
bin	0.0041	0
bin	0.0042	0
bin	0.0043	0
bin	0.0044	0
bin	0.0045	0
bin	0.0046	0
bin	0.0047	3
bin	0.0048	0
bin	0.0049	0
bin	0.005	0
bin	0.0051	0
bin	0.0052	0
bin	0.0053	0
bin	0.0054	0
bin	0.0055	0
bin	0.0056	0
bin	0.0057	0
bin	0.0058	0
bin	0.0059	0
bin	0.006	0
scalar testNetwork.westernCoreRouter.ppp[0].queue.fifo outgoingPackets:count 1977
attr recordingmode count
attr source packetPulled
attr title "outgoing packets, count"
attr unit pk
scalar testNetwork.westernCoreRouter.ppp[0].queue.fifo outgoingPacketLengths:sum 4774848
attr interpolationmode none
attr recordingmode sum
attr source packetLength(packetPulled)
attr title "outgoing packet lengths, sum"
attr unit b
statistic testNetwork.westernCoreRouter.ppp[0].queue.fifo outgoingPacketLengths:histogram
field count 1977
field mean 2415.1987860395
field stddev 3422.8834314451
field min 320
field max 11936
field sum 4774848
field sqrsum 34683281920
attr interpolationmode none
attr recordingmode histogram
attr source packetLength(packetPulled)
attr title "outgoing packet lengths"
attr unit b
bin	-inf	0
bin	0	0
bin	200	1
bin	400	289
bin	600	313
bin	800	446
bin	1000	165
bin	1200	132
bin	1400	92
bin	1600	62
bin	1800	36
bin	2000	34
bin	2200	28
bin	2400	21
bin	2600	10
bin	2800	15
bin	3000	14
bin	3200	11
bin	3400	4
bin	3600	7
bin	3800	6
bin	4000	7
bin	4200	5
bin	4400	10
bin	4600	6
bin	4800	3
bin	5000	4
bin	5200	5
bin	5400	5
bin	5600	2
bin	5800	3
bin	6000	4
bin	6200	1
bin	6400	4
bin	6600	3
bin	6800	3
bin	7000	2
bin	7200	1
bin	7400	1
bin	7600	1
bin	7800	1
bin	8000	0
bin	8200	0
bin	8400	2
bin	8600	2
bin	8800	0
bin	9000	0
bin	9200	4
bin	9400	2
bin	9600	2
bin	9800	0
bin	10000	7
bin	10200	5
bin	10400	2
bin	10600	1
bin	10800	2
bin	11000	5
bin	11200	2
bin	11400	2
bin	11600	0
bin	11800	182
bin	12000	0
bin	12200	0
bin	12400	0
bin	12600	0
bin	12800	0
bin	13000	0
bin	13200	0
bin	13400	0
bin	13600	0
bin	13800	0
bin	14000	0
bin	14200	0
bin	14400	0
bin	14600	0
bin	14800	0
bin	15000	0
statistic testNetwork.westernCoreRouter.ppp[0].queue.fifo flowQueueingTime:histogram
field count 0
field mean -nan
field stddev nan
field min nan
field max nan
field sum 0
field sqrsum 0
attr interpolationmode none
attr recordingmode histogram
attr source queueingTime(demuxFlow(packetPulled))
attr title "flow queueing times"
attr unit s
bin	-inf	0
bin	0	0
bin	1	0
scalar testNetwork.westernCoreRouter.ppp[0].queue.fifo incomingPackets:count 1977
attr recordingmode count
attr source packetPushStarted
attr title "incoming packets, count"
attr unit pk
scalar testNetwork.westernCoreRouter.ppp[0].queue.fifo incomingPacketLengths:sum 4774848
attr interpolationmode none
attr recordingmode sum
attr source packetLength(packetPushStarted)
attr title "incoming packet lengths, sum"
attr unit b
statistic testNetwork.westernCoreRouter.ppp[0].queue.fifo incomingPacketLengths:histogram
field count 1977
field mean 2415.1987860395
field stddev 3422.8834314451
field min 320
field max 11936
field sum 4774848
field sqrsum 34683281920
attr interpolationmode none
attr recordingmode histogram
attr source packetLength(packetPushStarted)
attr title "incoming packet lengths"
attr unit b
bin	-inf	0
bin	0	0
bin	200	1
bin	400	289
bin	600	313
bin	800	446
bin	1000	165
bin	1200	132
bin	1400	92
bin	1600	62
bin	1800	36
bin	2000	34
bin	2200	28
bin	2400	21
bin	2600	10
bin	2800	15
bin	3000	14
bin	3200	11
bin	3400	4
bin	3600	7
bin	3800	6
bin	4000	7
bin	4200	5
bin	4400	10
bin	4600	6
bin	4800	3
bin	5000	4
bin	5200	5
bin	5400	5
bin	5600	2
bin	5800	3
bin	6000	4
bin	6200	1
bin	6400	4
bin	6600	3
bin	6800	3
bin	7000	2
bin	7200	1
bin	7400	1
bin	7600	1
bin	7800	1
bin	8000	0
bin	8200	0
bin	8400	2
bin	8600	2
bin	8800	0
bin	9000	0
bin	9200	4
bin	9400	2
bin	9600	2
bin	9800	0
bin	10000	7
bin	10200	5
bin	10400	2
bin	10600	1
bin	10800	2
bin	11000	5
bin	11200	2
bin	11400	2
bin	11600	0
bin	11800	182
bin	12000	0
bin	12200	0
bin	12400	0
bin	12600	0
bin	12800	0
bin	13000	0
bin	13200	0
bin	13400	0
bin	13600	0
bin	13800	0
bin	14000	0
bin	14200	0
bin	14400	0
bin	14600	0
bin	14800	0
bin	15000	0
scalar testNetwork.westernCoreRouter.ppp[0].queue.fifo droppedPacketsQueueOverflow:count 0
attr interpolationmode none
attr recordingmode count
attr source packetDropReasonIsQueueOverflow(packetDropped)
attr title "dropped packets: queue overflow, count"
attr unit pk
scalar testNetwork.westernCoreRouter.ppp[0].queue.fifo droppedPacketLengthsQueueOverflow:sum 0
attr interpolationmode none
attr recordingmode sum
attr source packetLength(packetDropReasonIsQueueOverflow(packetDropped))
attr title "dropped packet lengths: queue overflow, sum"
attr unit b
scalar testNetwork.westernCoreRouter.ppp[0].queue queueLength:last nan
attr autoWarmupFilter false
attr interpolationmode sample-hold
attr recordingmode last
attr source "warmup(atomic(constant0(localSignal(packetPushEnded)) + count(localSignal(packetPushStarted)) - count(localSignal(packetPulled)) - count(localSignal(packetRemoved)) - count(localSignal(packetDropped))))"
attr title "queue length, last"
attr unit pk
scalar testNetwork.westernCoreRouter.ppp[0].queue queueLength:max nan
attr autoWarmupFilter false
attr interpolationmode sample-hold
attr recordingmode max
attr source "warmup(atomic(constant0(localSignal(packetPushEnded)) + count(localSignal(packetPushStarted)) - count(localSignal(packetPulled)) - count(localSignal(packetRemoved)) - count(localSignal(packetDropped))))"
attr title "queue length, max"
attr unit pk
scalar testNetwork.westernCoreRouter.ppp[0].queue queueLength:timeavg -nan
attr autoWarmupFilter false
attr interpolationmode sample-hold
attr recordingmode timeavg
attr source "warmup(atomic(constant0(localSignal(packetPushEnded)) + count(localSignal(packetPushStarted)) - count(localSignal(packetPulled)) - count(localSignal(packetRemoved)) - count(localSignal(packetDropped))))"
attr title "queue length, timeavg"
attr unit pk
scalar testNetwork.westernCoreRouter.ppp[0].queue queueBitLength:last nan
attr autoWarmupFilter false
attr interpolationmode sample-hold
attr recordingmode last
attr source "warmup(atomic(constant0(localSignal(packetPushEnded)) + sum(packetLength(localSignal(packetPushStarted))) - sum(packetLength(localSignal(packetPulled))) - sum(packetLength(localSignal(packetRemoved))) - sum(packetLength(localSignal(packetDropped)))))"
attr title "queue bit length, last"
attr unit b
scalar testNetwork.westernCoreRouter.ppp[0].queue queueBitLength:max nan
attr autoWarmupFilter false
attr interpolationmode sample-hold
attr recordingmode max
attr source "warmup(atomic(constant0(localSignal(packetPushEnded)) + sum(packetLength(localSignal(packetPushStarted))) - sum(packetLength(localSignal(packetPulled))) - sum(packetLength(localSignal(packetRemoved))) - sum(packetLength(localSignal(packetDropped)))))"
attr title "queue bit length, max"
attr unit b
scalar testNetwork.westernCoreRouter.ppp[0].queue queueBitLength:timeavg -nan
attr autoWarmupFilter false
attr interpolationmode sample-hold
attr recordingmode timeavg
attr source "warmup(atomic(constant0(localSignal(packetPushEnded)) + sum(packetLength(localSignal(packetPushStarted))) - sum(packetLength(localSignal(packetPulled))) - sum(packetLength(localSignal(packetRemoved))) - sum(packetLength(localSignal(packetDropped)))))"
attr title "queue bit length, timeavg"
attr unit b
statistic testNetwork.westernCoreRouter.ppp[0].queue queueingTime:histogram
field count 1977
field mean 0
field stddev 0
field min 0
field max 0
field sum 0
field sqrsum 0
attr interpolationmode none
attr recordingmode histogram
attr source queueingTime(localSignal(packetPulled))
attr title "queueing times"
attr unit s
bin	-inf	0
bin	-0.5	0
bin	-0.48	0
bin	-0.46	0
bin	-0.44	0
bin	-0.42	0
bin	-0.4	0
bin	-0.38	0
bin	-0.36	0
bin	-0.34	0
bin	-0.32	0
bin	-0.3	0
bin	-0.28	0
bin	-0.26	0
bin	-0.24	0
bin	-0.22	0
bin	-0.2	0
bin	-0.18	0
bin	-0.16	0
bin	-0.14	0
bin	-0.12	0
bin	-0.1	0
bin	-0.08	0
bin	-0.06	0
bin	-0.04	0
bin	-0.02	0
bin	0	1977
bin	0.02	0
bin	0.04	0
bin	0.06	0
bin	0.08	0
bin	0.1	0
bin	0.12	0
bin	0.14	0
bin	0.16	0
bin	0.18	0
bin	0.2	0
bin	0.22	0
bin	0.24	0
bin	0.26	0
bin	0.28	0
bin	0.3	0
bin	0.32	0
bin	0.34	0
bin	0.36	0
bin	0.38	0
bin	0.4	0
bin	0.42	0
bin	0.44	0
bin	0.46	0
bin	0.48	0
bin	0.5	0
scalar testNetwork.westernCoreRouter.ppp[0].queue outgoingPackets:count 1977
attr recordingmode count
attr source localSignal(packetPulled)
attr title "outgoing packets, count"
attr unit pk
scalar testNetwork.westernCoreRouter.ppp[0].queue outgoingPacketLengths:sum 4774848
attr interpolationmode none
attr recordingmode sum
attr source packetLength(localSignal(packetPulled))
attr title "outgoing packet lengths, sum"
attr unit b
statistic testNetwork.westernCoreRouter.ppp[0].queue outgoingPacketLengths:histogram
field count 1977
field mean 2415.1987860395
field stddev 3422.8834314451
field min 320
field max 11936
field sum 4774848
field sqrsum 34683281920
attr interpolationmode none
attr recordingmode histogram
attr source packetLength(localSignal(packetPulled))
attr title "outgoing packet lengths"
attr unit b
bin	-inf	0
bin	0	0
bin	200	1
bin	400	289
bin	600	313
bin	800	446
bin	1000	165
bin	1200	132
bin	1400	92
bin	1600	62
bin	1800	36
bin	2000	34
bin	2200	28
bin	2400	21
bin	2600	10
bin	2800	15
bin	3000	14
bin	3200	11
bin	3400	4
bin	3600	7
bin	3800	6
bin	4000	7
bin	4200	5
bin	4400	10
bin	4600	6
bin	4800	3
bin	5000	4
bin	5200	5
bin	5400	5
bin	5600	2
bin	5800	3
bin	6000	4
bin	6200	1
bin	6400	4
bin	6600	3
bin	6800	3
bin	7000	2
bin	7200	1
bin	7400	1
bin	7600	1
bin	7800	1
bin	8000	0
bin	8200	0
bin	8400	2
bin	8600	2
bin	8800	0
bin	9000	0
bin	9200	4
bin	9400	2
bin	9600	2
bin	9800	0
bin	10000	7
bin	10200	5
bin	10400	2
bin	10600	1
bin	10800	2
bin	11000	5
bin	11200	2
bin	11400	2
bin	11600	0
bin	11800	182
bin	12000	0
bin	12200	0
bin	12400	0
bin	12600	0
bin	12800	0
bin	13000	0
bin	13200	0
bin	13400	0
bin	13600	0
bin	13800	0
bin	14000	0
bin	14200	0
bin	14400	0
bin	14600	0
bin	14800	0
bin	15000	0
statistic testNetwork.westernCoreRouter.ppp[0].queue flowQueueingTime:histogram
field count 0
field mean -nan
field stddev nan
field min nan
field max nan
field sum 0
field sqrsum 0
attr interpolationmode none
attr recordingmode histogram
attr source queueingTime(demuxFlow(localSignal(packetPulled)))
attr title "flow queueing times"
attr unit s
bin	-inf	0
bin	0	0
bin	1	0
scalar testNetwork.westernCoreRouter.ppp[0].queue incomingPackets:count 0
attr recordingmode count
attr source localSignal(packetPushStarted)
attr title "incoming packets, count"
attr unit pk
scalar testNetwork.westernCoreRouter.ppp[0].queue incomingPacketLengths:sum 0
attr interpolationmode none
attr recordingmode sum
attr source packetLength(localSignal(packetPushStarted))
attr title "incoming packet lengths, sum"
attr unit b
statistic testNetwork.westernCoreRouter.ppp[0].queue incomingPacketLengths:histogram
field count 0
field mean -nan
field stddev nan
field min nan
field max nan
field sum 0
field sqrsum 0
attr interpolationmode none
attr recordingmode histogram
attr source packetLength(localSignal(packetPushStarted))
attr title "incoming packet lengths"
attr unit b
bin	-inf	0
bin	0	0
bin	1	0
scalar testNetwork.westernCoreRouter.ppp[0].queue droppedPacketsQueueOverflow:count 0
attr interpolationmode none
attr recordingmode count
attr source packetDropReasonIsQueueOverflow(localSignal(packetDropped))
attr title "dropped packets: queue overflow, count"
attr unit pk
scalar testNetwork.westernCoreRouter.ppp[0].queue droppedPacketLengthsQueueOverflow:sum 0
attr interpolationmode none
attr recordingmode sum
attr source packetLength(packetDropReasonIsQueueOverflow(localSignal(packetDropped)))
attr title "dropped packet lengths: queue overflow, sum"
attr unit b
scalar testNetwork.westernCoreRouter.ppp[0].ppp transmissionState:timeavg 0.00013570996230279
attr interpolationmode sample-hold
attr recordingmode timeavg
attr source transmissionStateChanged
attr title "tx state, timeavg"
scalar testNetwork.westernCoreRouter.ppp[0].ppp rxPkOk:count 1856
attr interpolationmode none
attr recordingmode count
attr source rxPkOk
attr title "packets received OK, count"
scalar testNetwork.westernCoreRouter.ppp[0].ppp rxPkOk:sum(packetBytes) 109512
attr interpolationmode none
attr recordingmode sum(packetBytes)
attr source rxPkOk
attr title "packets received OK, sum(packetBytes)"
scalar testNetwork.westernCoreRouter.ppp[0].ppp txPk:count 1977
attr interpolationmode none
attr recordingmode count
attr source packetSentToLower
attr title "packets transmitted, count"
scalar testNetwork.westernCoreRouter.ppp[0].ppp txPk:sum(packetBytes) 610695
attr interpolationmode none
attr recordingmode sum(packetBytes)
attr source packetSentToLower
attr title "packets transmitted, sum(packetBytes)"
scalar testNetwork.westernCoreRouter.ppp[0].ppp rcvdPkFromHl:count 1977
attr interpolationmode none
attr recordingmode count
attr source packetReceivedFromUpper
attr title "packets received from higher layer, count"
scalar testNetwork.westernCoreRouter.ppp[0].ppp rcvdPkFromHl:sum(packetBytes) 596856
attr interpolationmode none
attr recordingmode sum(packetBytes)
attr source packetReceivedFromUpper
attr title "packets received from higher layer, sum(packetBytes)"
scalar testNetwork.westernCoreRouter.ppp[0].ppp passedUpPk:count 1856
attr interpolationmode none
attr recordingmode count
attr source packetSentToUpper
attr title "packets passed to higher layer, count"
scalar testNetwork.westernCoreRouter.ppp[0].ppp passedUpPk:sum(packetBytes) 96520
attr interpolationmode none
attr recordingmode sum(packetBytes)
attr source packetSentToUpper
attr title "packets passed to higher layer, sum(packetBytes)"
scalar testNetwork.westernCoreRouter.ppp[0].ppp packetDropIncorrectlyReceived:count 0
attr interpolationmode none
attr recordingmode count
attr source packetDropReasonIsIncorrectlyReceived(packetDropped)
attr title "packet drop: incorrectly received, count"
scalar testNetwork.westernCoreRouter.ppp[0].ppp packetDropIncorrectlyReceived:sum(packetBytes) 0
attr interpolationmode none
attr recordingmode sum(packetBytes)
attr source packetDropReasonIsIncorrectlyReceived(packetDropped)
attr title "packet drop: incorrectly received, sum(packetBytes)"
scalar testNetwork.westernCoreRouter.ppp[0].ppp packetDropInterfaceDown:count 0
attr interpolationmode none
attr recordingmode count
attr source packetDropReasonIsInterfaceDown(packetDropped)
attr title "packet drop: interface down, count"
scalar testNetwork.westernCoreRouter.ppp[0].ppp packetDropInterfaceDown:sum(packetBytes) 0
attr interpolationmode none
attr recordingmode sum(packetBytes)
attr source packetDropReasonIsInterfaceDown(packetDropped)
attr title "packet drop: interface down, sum(packetBytes)"
scalar testNetwork.westernCoreRouter.ppp[0] packetDropInterfaceDown:count 0
attr interpolationmode none
attr recordingmode count
attr source packetDropReasonIsInterfaceDown(packetDropped)
attr title "packet drops: interface down, count"
scalar testNetwork.westernCoreRouter.ppp[0] packetDropInterfaceDown:sum(packetBytes) 0
attr interpolationmode none
attr recordingmode sum(packetBytes)
attr source packetDropReasonIsInterfaceDown(packetDropped)
attr title "packet drops: interface down, sum(packetBytes)"
scalar testNetwork.westernCoreRouter.ppp[0] packetDropNoCarrier:count 0
attr interpolationmode none
attr recordingmode count
attr source packetDropReasonIsNoCarrier(packetDropped)
attr title "packet drops: no carrier, count"
scalar testNetwork.westernCoreRouter.ppp[0] packetDropNoCarrier:sum(packetBytes) 0
attr interpolationmode none
attr recordingmode sum(packetBytes)
attr source packetDropReasonIsNoCarrier(packetDropped)
attr title "packet drops: no carrier, sum(packetBytes)"
scalar testNetwork.westernCoreRouter.ppp[1].queue queueLength:last 0
attr autoWarmupFilter false
attr interpolationmode sample-hold
attr recordingmode last
attr source "warmup(atomic(constant0(packetPushEnded) + count(packetPushStarted) - count(packetPulled) - count(packetRemoved) - count(packetDropped)))"
attr title "queue length, last"
attr unit pk
scalar testNetwork.westernCoreRouter.ppp[1].queue queueLength:max 0
attr autoWarmupFilter false
attr interpolationmode sample-hold
attr recordingmode max
attr source "warmup(atomic(constant0(packetPushEnded) + count(packetPushStarted) - count(packetPulled) - count(packetRemoved) - count(packetDropped)))"
attr title "queue length, max"
attr unit pk
scalar testNetwork.westernCoreRouter.ppp[1].queue queueLength:timeavg 0
attr autoWarmupFilter false
attr interpolationmode sample-hold
attr recordingmode timeavg
attr source "warmup(atomic(constant0(packetPushEnded) + count(packetPushStarted) - count(packetPulled) - count(packetRemoved) - count(packetDropped)))"
attr title "queue length, timeavg"
attr unit pk
scalar testNetwork.westernCoreRouter.ppp[1].queue queueBitLength:last 0
attr autoWarmupFilter false
attr interpolationmode sample-hold
attr recordingmode last
attr source "warmup(atomic(constant0(packetPushEnded) + sum(packetLength(packetPushStarted)) - sum(packetLength(packetPulled)) - sum(packetLength(packetRemoved)) - sum(packetLength(packetDropped))))"
attr title "queue bit length, last"
attr unit b
scalar testNetwork.westernCoreRouter.ppp[1].queue queueBitLength:max 0
attr autoWarmupFilter false
attr interpolationmode sample-hold
attr recordingmode max
attr source "warmup(atomic(constant0(packetPushEnded) + sum(packetLength(packetPushStarted)) - sum(packetLength(packetPulled)) - sum(packetLength(packetRemoved)) - sum(packetLength(packetDropped))))"
attr title "queue bit length, max"
attr unit b
scalar testNetwork.westernCoreRouter.ppp[1].queue queueBitLength:timeavg 0
attr autoWarmupFilter false
attr interpolationmode sample-hold
attr recordingmode timeavg
attr source "warmup(atomic(constant0(packetPushEnded) + sum(packetLength(packetPushStarted)) - sum(packetLength(packetPulled)) - sum(packetLength(packetRemoved)) - sum(packetLength(packetDropped))))"
attr title "queue bit length, timeavg"
attr unit b
statistic testNetwork.westernCoreRouter.ppp[1].queue queueingTime:histogram
field count 1856
field mean 0
field stddev 0
field min 0
field max 0
field sum 0
field sqrsum 0
attr interpolationmode none
attr recordingmode histogram
attr source queueingTime(packetPulled)
attr title "queueing times"
attr unit s
bin	-inf	0
bin	-0.5	0
bin	-0.48	0
bin	-0.46	0
bin	-0.44	0
bin	-0.42	0
bin	-0.4	0
bin	-0.38	0
bin	-0.36	0
bin	-0.34	0
bin	-0.32	0
bin	-0.3	0
bin	-0.28	0
bin	-0.26	0
bin	-0.24	0
bin	-0.22	0
bin	-0.2	0
bin	-0.18	0
bin	-0.16	0
bin	-0.14	0
bin	-0.12	0
bin	-0.1	0
bin	-0.08	0
bin	-0.06	0
bin	-0.04	0
bin	-0.02	0
bin	0	1856
bin	0.02	0
bin	0.04	0
bin	0.06	0
bin	0.08	0
bin	0.1	0
bin	0.12	0
bin	0.14	0
bin	0.16	0
bin	0.18	0
bin	0.2	0
bin	0.22	0
bin	0.24	0
bin	0.26	0
bin	0.28	0
bin	0.3	0
bin	0.32	0
bin	0.34	0
bin	0.36	0
bin	0.38	0
bin	0.4	0
bin	0.42	0
bin	0.44	0
bin	0.46	0
bin	0.48	0
bin	0.5	0
scalar testNetwork.westernCoreRouter.ppp[1].queue outgoingPackets:count 1856
attr recordingmode count
attr source packetPulled
attr title "outgoing packets, count"
attr unit pk
scalar testNetwork.westernCoreRouter.ppp[1].queue outgoingPacketLengths:sum 772160
attr interpolationmode none
attr recordingmode sum
attr source packetLength(packetPulled)
attr title "outgoing packet lengths, sum"
attr unit b
statistic testNetwork.westernCoreRouter.ppp[1].queue outgoingPacketLengths:histogram
field count 1856
field mean 416.03448275862
field stddev 1.4855627054179
field min 416
field max 480
field sum 772160
field sqrsum 321249280
attr interpolationmode none
attr recordingmode histogram
attr source packetLength(packetPulled)
attr title "outgoing packet lengths"
attr unit b
bin	-inf	0
bin	400	0
bin	402	0
bin	404	0
bin	406	0
bin	408	0
bin	410	0
bin	412	0
bin	414	0
bin	416	1855
bin	418	0
bin	420	0
bin	422	0
bin	424	0
bin	426	0
bin	428	0
bin	430	0
bin	432	0
bin	434	0
bin	436	0
bin	438	0
bin	440	0
bin	442	0
bin	444	0
bin	446	0
bin	448	0
bin	450	0
bin	452	0
bin	454	0
bin	456	0
bin	458	0
bin	460	0
bin	462	0
bin	464	0
bin	466	0
bin	468	0
bin	470	0
bin	472	0
bin	474	0
bin	476	0
bin	478	0
bin	480	1
bin	482	0
bin	484	0
bin	486	0
bin	488	0
bin	490	0
bin	492	0
bin	494	0
bin	496	0
statistic testNetwork.westernCoreRouter.ppp[1].queue flowQueueingTime:histogram
field count 0
field mean -nan
field stddev nan
field min nan
field max nan
field sum 0
field sqrsum 0
attr interpolationmode none
attr recordingmode histogram
attr source queueingTime(demuxFlow(packetPulled))
attr title "flow queueing times"
attr unit s
bin	-inf	0
bin	0	0
bin	1	0
scalar testNetwork.westernCoreRouter.ppp[1].queue incomingPackets:count 1856
attr recordingmode count
attr source packetPushStarted
attr title "incoming packets, count"
attr unit pk
scalar testNetwork.westernCoreRouter.ppp[1].queue incomingPacketLengths:sum 772160
attr interpolationmode none
attr recordingmode sum
attr source packetLength(packetPushStarted)
attr title "incoming packet lengths, sum"
attr unit b
statistic testNetwork.westernCoreRouter.ppp[1].queue incomingPacketLengths:histogram
field count 1856
field mean 416.03448275862
field stddev 1.4855627054179
field min 416
field max 480
field sum 772160
field sqrsum 321249280
attr interpolationmode none
attr recordingmode histogram
attr source packetLength(packetPushStarted)
attr title "incoming packet lengths"
attr unit b
bin	-inf	0
bin	400	0
bin	402	0
bin	404	0
bin	406	0
bin	408	0
bin	410	0
bin	412	0
bin	414	0
bin	416	1855
bin	418	0
bin	420	0
bin	422	0
bin	424	0
bin	426	0
bin	428	0
bin	430	0
bin	432	0
bin	434	0
bin	436	0
bin	438	0
bin	440	0
bin	442	0
bin	444	0
bin	446	0
bin	448	0
bin	450	0
bin	452	0
bin	454	0
bin	456	0
bin	458	0
bin	460	0
bin	462	0
bin	464	0
bin	466	0
bin	468	0
bin	470	0
bin	472	0
bin	474	0
bin	476	0
bin	478	0
bin	480	1
bin	482	0
bin	484	0
bin	486	0
bin	488	0
bin	490	0
bin	492	0
bin	494	0
bin	496	0
scalar testNetwork.westernCoreRouter.ppp[1].queue droppedPacketsQueueOverflow:count 0
attr interpolationmode none
attr recordingmode count
attr source packetDropReasonIsQueueOverflow(packetDropped)
attr title "dropped packets: queue overflow, count"
attr unit pk
scalar testNetwork.westernCoreRouter.ppp[1].queue droppedPacketLengthsQueueOverflow:sum 0
attr interpolationmode none
attr recordingmode sum
attr source packetLength(packetDropReasonIsQueueOverflow(packetDropped))
attr title "dropped packet lengths: queue overflow, sum"
attr unit b
scalar testNetwork.westernCoreRouter.ppp[1].ppp transmissionState:timeavg 2.4233048824153e-07
attr interpolationmode sample-hold
attr recordingmode timeavg
attr source transmissionStateChanged
attr title "tx state, timeavg"
scalar testNetwork.westernCoreRouter.ppp[1].ppp rxPkOk:count 1977
attr interpolationmode none
attr recordingmode count
attr source rxPkOk
attr title "packets received OK, count"
scalar testNetwork.westernCoreRouter.ppp[1].ppp rxPkOk:sum(packetBytes) 610695
attr interpolationmode none
attr recordingmode sum(packetBytes)
attr source rxPkOk
attr title "packets received OK, sum(packetBytes)"
scalar testNetwork.westernCoreRouter.ppp[1].ppp txPk:count 1856
attr interpolationmode none
attr recordingmode count
attr source packetSentToLower
attr title "packets transmitted, count"
scalar testNetwork.westernCoreRouter.ppp[1].ppp txPk:sum(packetBytes) 109512
attr interpolationmode none
attr recordingmode sum(packetBytes)
attr source packetSentToLower
attr title "packets transmitted, sum(packetBytes)"
scalar testNetwork.westernCoreRouter.ppp[1].ppp rcvdPkFromHl:count 1856
attr interpolationmode none
attr recordingmode count
attr source packetReceivedFromUpper
attr title "packets received from higher layer, count"
scalar testNetwork.westernCoreRouter.ppp[1].ppp rcvdPkFromHl:sum(packetBytes) 96520
attr interpolationmode none
attr recordingmode sum(packetBytes)
attr source packetReceivedFromUpper
attr title "packets received from higher layer, sum(packetBytes)"
scalar testNetwork.westernCoreRouter.ppp[1].ppp passedUpPk:count 1977
attr interpolationmode none
attr recordingmode count
attr source packetSentToUpper
attr title "packets passed to higher layer, count"
scalar testNetwork.westernCoreRouter.ppp[1].ppp passedUpPk:sum(packetBytes) 596856
attr interpolationmode none
attr recordingmode sum(packetBytes)
attr source packetSentToUpper
attr title "packets passed to higher layer, sum(packetBytes)"
scalar testNetwork.westernCoreRouter.ppp[1].ppp packetDropIncorrectlyReceived:count 0
attr interpolationmode none
attr recordingmode count
attr source packetDropReasonIsIncorrectlyReceived(packetDropped)
attr title "packet drop: incorrectly received, count"
scalar testNetwork.westernCoreRouter.ppp[1].ppp packetDropIncorrectlyReceived:sum(packetBytes) 0
attr interpolationmode none
attr recordingmode sum(packetBytes)
attr source packetDropReasonIsIncorrectlyReceived(packetDropped)
attr title "packet drop: incorrectly received, sum(packetBytes)"
scalar testNetwork.westernCoreRouter.ppp[1].ppp packetDropInterfaceDown:count 0
attr interpolationmode none
attr recordingmode count
attr source packetDropReasonIsInterfaceDown(packetDropped)
attr title "packet drop: interface down, count"
scalar testNetwork.westernCoreRouter.ppp[1].ppp packetDropInterfaceDown:sum(packetBytes) 0
attr interpolationmode none
attr recordingmode sum(packetBytes)
attr source packetDropReasonIsInterfaceDown(packetDropped)
attr title "packet drop: interface down, sum(packetBytes)"
scalar testNetwork.westernCoreRouter.ppp[1] packetDropInterfaceDown:count 0
attr interpolationmode none
attr recordingmode count
attr source packetDropReasonIsInterfaceDown(packetDropped)
attr title "packet drops: interface down, count"
scalar testNetwork.westernCoreRouter.ppp[1] packetDropInterfaceDown:sum(packetBytes) 0
attr interpolationmode none
attr recordingmode sum(packetBytes)
attr source packetDropReasonIsInterfaceDown(packetDropped)
attr title "packet drops: interface down, sum(packetBytes)"
scalar testNetwork.westernCoreRouter.ppp[1] packetDropNoCarrier:count 0
attr interpolationmode none
attr recordingmode count
attr source packetDropReasonIsNoCarrier(packetDropped)
attr title "packet drops: no carrier, count"
scalar testNetwork.westernCoreRouter.ppp[1] packetDropNoCarrier:sum(packetBytes) 0
attr interpolationmode none
attr recordingmode sum(packetBytes)
attr source packetDropReasonIsNoCarrier(packetDropped)
attr title "packet drops: no carrier, sum(packetBytes)"
scalar testNetwork.westernCoreRouter.ipv4.ip packetDropAddressResolutionFailed:count 0
attr interpolationmode none
attr recordingmode count
attr source packetDropReasonIsAddressResolutionFailed(packetDropped)
attr title "packet drop: address resolution failed, count"
scalar testNetwork.westernCoreRouter.ipv4.ip packetDropAddressResolutionFailed:sum(packetBytes) 0
attr interpolationmode none
attr recordingmode sum(packetBytes)
attr source packetDropReasonIsAddressResolutionFailed(packetDropped)
attr title "packet drop: address resolution failed, sum(packetBytes)"
scalar testNetwork.westernCoreRouter.ipv4.ip packetDropHopLimitReached:count 0
attr interpolationmode none
attr recordingmode count
attr source packetDropReasonIsHopLimitReached(packetDropped)
attr title "packet drop: hop limit reached, count"
scalar testNetwork.westernCoreRouter.ipv4.ip packetDropHopLimitReached:sum(packetBytes) 0
attr interpolationmode none
attr recordingmode sum(packetBytes)
attr source packetDropReasonIsHopLimitReached(packetDropped)
attr title "packet drop: hop limit reached, sum(packetBytes)"
scalar testNetwork.westernCoreRouter.ipv4.ip packetDropForwardingDisabled:count 0
attr interpolationmode none
attr recordingmode count
attr source packetDropReasonIsForwardingDisabled(packetDropped)
attr title "packet drop: forwarding disabled, count"
scalar testNetwork.westernCoreRouter.ipv4.ip packetDropForwardingDisabled:sum(packetBytes) 0
attr interpolationmode none
attr recordingmode sum(packetBytes)
attr source packetDropReasonIsForwardingDisabled(packetDropped)
attr title "packet drop: forwarding disabled, sum(packetBytes)"
scalar testNetwork.westernCoreRouter.ipv4.ip packetDropNoInterfaceFound:count 0
attr interpolationmode none
attr recordingmode count
attr source packetDropReasonIsNoInterfaceFound(packetDropped)
attr title "packet drop: no interface found, count"
[...]
scalar testNetwork.clientMain[0].ipv4.arp arpReplySent:count 0
attr recordingmode count
attr source arpReplySent
attr title "ARP replies sent, count"
scalar testNetwork.clientMain[0].ipv4.arp arpReplySent:sum(packetBytes) 0
attr recordingmode sum(packetBytes)
attr source arpReplySent
attr title "ARP replies sent, sum(packetBytes)"
scalar testNetwork.clientMain[0].ipv4.arp arpRequestSent:count 0
attr recordingmode count
attr source arpRequestSent
attr title "ARP request sent, count"
scalar testNetwork.clientMain[0].ipv4.arp arpRequestSent:sum(packetBytes) 0
attr recordingmode sum(packetBytes)
attr source arpRequestSent
attr title "ARP request sent, sum(packetBytes)"
scalar testNetwork.clientMain[0].udp packetReceived:count 0
attr interpolationmode none
attr recordingmode count
attr source packetReceived
attr title "packets received, count"
scalar testNetwork.clientMain[0].udp packetReceived:sum(packetBytes) 0
attr interpolationmode none
attr recordingmode sum(packetBytes)
attr source packetReceived
attr title "packets received, sum(packetBytes)"
scalar testNetwork.clientMain[0].udp packetSent:count 0
attr interpolationmode none
attr recordingmode count
attr source packetSent
attr title "packets sent, count"
scalar testNetwork.clientMain[0].udp packetSent:sum(packetBytes) 0
attr interpolationmode none
attr recordingmode sum(packetBytes)
attr source packetSent
attr title "packets sent, sum(packetBytes)"
scalar testNetwork.clientMain[0].udp passedUpPk:count 0
attr interpolationmode none
attr recordingmode count
attr source packetSentToUpper
attr title "packets passed up, count"
scalar testNetwork.clientMain[0].udp droppedPkWrongPort:count 0
attr interpolationmode none
attr recordingmode count
attr source packetDropReasonIsNoPortFound(packetDropped)
attr title "packets dropped (wrong port), count"
scalar testNetwork.clientMain[0].udp droppedPkBadChecksum:count 0
attr interpolationmode none
attr recordingmode count
attr source packetDropReasonIsIncorrectlyReceived(packetDropped)
attr title "packets dropped (checksum error), count"
scalar testNetwork.serverMain[0].lo[0].lo rcvdPkFromHl:count 0
attr interpolationmode none
attr recordingmode count
attr source packetReceivedFromUpper
attr title "packets received from higher layer, count"
scalar testNetwork.serverMain[0].lo[0].lo rcvdPkFromHl:sum(packetBytes) 0
attr interpolationmode none
attr recordingmode sum(packetBytes)
attr source packetReceivedFromUpper
attr title "packets received from higher layer, sum(packetBytes)"
scalar testNetwork.serverMain[0].lo[0].lo passedUpPk:count 0
attr interpolationmode none
attr recordingmode count
attr source packetSentToUpper
attr title "packets passed to higher layer, count"
scalar testNetwork.serverMain[0].lo[0].lo passedUpPk:sum(packetBytes) 0
attr interpolationmode none
attr recordingmode sum(packetBytes)
attr source packetSentToUpper
attr title "packets passed to higher layer, sum(packetBytes)"
scalar testNetwork.serverMain[0].lo[0] packetDropInterfaceDown:count 0
attr interpolationmode none
attr recordingmode count
attr source packetDropReasonIsInterfaceDown(packetDropped)
attr title "packet drops: interface down, count"
scalar testNetwork.serverMain[0].lo[0] packetDropInterfaceDown:sum(packetBytes) 0
attr interpolationmode none
attr recordingmode sum(packetBytes)
attr source packetDropReasonIsInterfaceDown(packetDropped)
attr title "packet drops: interface down, sum(packetBytes)"
scalar testNetwork.serverMain[0].lo[0] packetDropNoCarrier:count 0
attr interpolationmode none
attr recordingmode count
attr source packetDropReasonIsNoCarrier(packetDropped)
attr title "packet drops: no carrier, count"
scalar testNetwork.serverMain[0].lo[0] packetDropNoCarrier:sum(packetBytes) 0
attr interpolationmode none
attr recordingmode sum(packetBytes)
attr source packetDropReasonIsNoCarrier(packetDropped)
attr title "packet drops: no carrier, sum(packetBytes)"
scalar testNetwork.serverMain[0].ppp[0].queue queueLength:last 0
attr autoWarmupFilter false
attr interpolationmode sample-hold
attr recordingmode last
attr source "warmup(atomic(constant0(packetPushEnded) + count(packetPushStarted) - count(packetPulled) - count(packetRemoved) - count(packetDropped)))"
attr title "queue length, last"
attr unit pk
scalar testNetwork.serverMain[0].ppp[0].queue queueLength:max 0
attr autoWarmupFilter false
attr interpolationmode sample-hold
attr recordingmode max
attr source "warmup(atomic(constant0(packetPushEnded) + count(packetPushStarted) - count(packetPulled) - count(packetRemoved) - count(packetDropped)))"
attr title "queue length, max"
attr unit pk
scalar testNetwork.serverMain[0].ppp[0].queue queueLength:timeavg 0
attr autoWarmupFilter false
attr interpolationmode sample-hold
attr recordingmode timeavg
attr source "warmup(atomic(constant0(packetPushEnded) + count(packetPushStarted) - count(packetPulled) - count(packetRemoved) - count(packetDropped)))"
attr title "queue length, timeavg"
attr unit pk
scalar testNetwork.serverMain[0].ppp[0].queue queueBitLength:last 0
attr autoWarmupFilter false
attr interpolationmode sample-hold
attr recordingmode last
attr source "warmup(atomic(constant0(packetPushEnded) + sum(packetLength(packetPushStarted)) - sum(packetLength(packetPulled)) - sum(packetLength(packetRemoved)) - sum(packetLength(packetDropped))))"
attr title "queue bit length, last"
attr unit b
scalar testNetwork.serverMain[0].ppp[0].queue queueBitLength:max 0
attr autoWarmupFilter false
attr interpolationmode sample-hold
attr recordingmode max
attr source "warmup(atomic(constant0(packetPushEnded) + sum(packetLength(packetPushStarted)) - sum(packetLength(packetPulled)) - sum(packetLength(packetRemoved)) - sum(packetLength(packetDropped))))"
attr title "queue bit length, max"
attr unit b
scalar testNetwork.serverMain[0].ppp[0].queue queueBitLength:timeavg 0
attr autoWarmupFilter false
attr interpolationmode sample-hold
attr recordingmode timeavg
attr source "warmup(atomic(constant0(packetPushEnded) + sum(packetLength(packetPushStarted)) - sum(packetLength(packetPulled)) - sum(packetLength(packetRemoved)) - sum(packetLength(packetDropped))))"
attr title "queue bit length, timeavg"
attr unit b
statistic testNetwork.serverMain[0].ppp[0].queue queueingTime:histogram
field count 1856
field mean 0
field stddev 0
field min 0
field max 0
field sum 0
field sqrsum 0
attr interpolationmode none
attr recordingmode histogram
attr source queueingTime(packetPulled)
attr title "queueing times"
attr unit s
bin	-inf	0
bin	-0.5	0
bin	-0.48	0
bin	-0.46	0
bin	-0.44	0
bin	-0.42	0
bin	-0.4	0
bin	-0.38	0
bin	-0.36	0
bin	-0.34	0
bin	-0.32	0
bin	-0.3	0
bin	-0.28	0
bin	-0.26	0
bin	-0.24	0
bin	-0.22	0
bin	-0.2	0
bin	-0.18	0
bin	-0.16	0
bin	-0.14	0
bin	-0.12	0
bin	-0.1	0
bin	-0.08	0
bin	-0.06	0
bin	-0.04	0
bin	-0.02	0
bin	0	1856
bin	0.02	0
bin	0.04	0
bin	0.06	0
bin	0.08	0
bin	0.1	0
bin	0.12	0
bin	0.14	0
bin	0.16	0
bin	0.18	0
bin	0.2	0
bin	0.22	0
bin	0.24	0
bin	0.26	0
bin	0.28	0
bin	0.3	0
bin	0.32	0
bin	0.34	0
bin	0.36	0
bin	0.38	0
bin	0.4	0
bin	0.42	0
bin	0.44	0
bin	0.46	0
bin	0.48	0
bin	0.5	0
scalar testNetwork.serverMain[0].ppp[0].queue outgoingPackets:count 1856
attr recordingmode count
attr source packetPulled
attr title "outgoing packets, count"
attr unit pk
scalar testNetwork.serverMain[0].ppp[0].queue outgoingPacketLengths:sum 772160
attr interpolationmode none
attr recordingmode sum
attr source packetLength(packetPulled)
attr title "outgoing packet lengths, sum"
attr unit b
statistic testNetwork.serverMain[0].ppp[0].queue outgoingPacketLengths:histogram
field count 1856
field mean 416.03448275862
field stddev 1.4855627054179
field min 416
field max 480
field sum 772160
field sqrsum 321249280
attr interpolationmode none
attr recordingmode histogram
attr source packetLength(packetPulled)
attr title "outgoing packet lengths"
attr unit b
bin	-inf	0
bin	400	0
bin	402	0
bin	404	0
bin	406	0
bin	408	0
bin	410	0
bin	412	0
bin	414	0
bin	416	1855
bin	418	0
bin	420	0
bin	422	0
bin	424	0
bin	426	0
bin	428	0
bin	430	0
bin	432	0
bin	434	0
bin	436	0
bin	438	0
bin	440	0
bin	442	0
bin	444	0
bin	446	0
bin	448	0
bin	450	0
bin	452	0
bin	454	0
bin	456	0
bin	458	0
bin	460	0
bin	462	0
bin	464	0
bin	466	0
bin	468	0
bin	470	0
bin	472	0
bin	474	0
bin	476	0
bin	478	0
bin	480	1
bin	482	0
bin	484	0
bin	486	0
bin	488	0
bin	490	0
bin	492	0
bin	494	0
bin	496	0
statistic testNetwork.serverMain[0].ppp[0].queue flowQueueingTime:histogram
field count 0
field mean -nan
field stddev nan
field min nan
field max nan
field sum 0
field sqrsum 0
attr interpolationmode none
attr recordingmode histogram
attr source queueingTime(demuxFlow(packetPulled))
attr title "flow queueing times"
attr unit s
bin	-inf	0
bin	0	0
bin	1	0
scalar testNetwork.serverMain[0].ppp[0].queue incomingPackets:count 1856
attr recordingmode count
attr source packetPushStarted
attr title "incoming packets, count"
attr unit pk
scalar testNetwork.serverMain[0].ppp[0].queue incomingPacketLengths:sum 772160
attr interpolationmode none
attr recordingmode sum
attr source packetLength(packetPushStarted)
attr title "incoming packet lengths, sum"
attr unit b
statistic testNetwork.serverMain[0].ppp[0].queue incomingPacketLengths:histogram
field count 1856
field mean 416.03448275862
field stddev 1.4855627054179
field min 416
field max 480
field sum 772160
field sqrsum 321249280
attr interpolationmode none
attr recordingmode histogram
attr source packetLength(packetPushStarted)
attr title "incoming packet lengths"
attr unit b
bin	-inf	0
bin	400	0
bin	402	0
bin	404	0
bin	406	0
bin	408	0
bin	410	0
bin	412	0
bin	414	0
bin	416	1855
bin	418	0
bin	420	0
bin	422	0
bin	424	0
bin	426	0
bin	428	0
bin	430	0
bin	432	0
bin	434	0
bin	436	0
bin	438	0
bin	440	0
bin	442	0
bin	444	0
bin	446	0
bin	448	0
bin	450	0
bin	452	0
bin	454	0
bin	456	0
bin	458	0
bin	460	0
bin	462	0
bin	464	0
bin	466	0
bin	468	0
bin	470	0
bin	472	0
bin	474	0
bin	476	0
bin	478	0
bin	480	1
bin	482	0
bin	484	0
bin	486	0
bin	488	0
bin	490	0
bin	492	0
bin	494	0
bin	496	0
scalar testNetwork.serverMain[0].ppp[0].queue droppedPacketsQueueOverflow:count 0
attr interpolationmode none
attr recordingmode count
attr source packetDropReasonIsQueueOverflow(packetDropped)
attr title "dropped packets: queue overflow, count"
attr unit pk
scalar testNetwork.serverMain[0].ppp[0].queue droppedPacketLengthsQueueOverflow:sum 0
attr interpolationmode none
attr recordingmode sum
attr source packetLength(packetDropReasonIsQueueOverflow(packetDropped))
attr title "dropped packet lengths: queue overflow, sum"
attr unit b
scalar testNetwork.serverMain[0].ppp[0].ppp transmissionState:timeavg 2.4233048824153e-07
attr interpolationmode sample-hold
attr recordingmode timeavg
attr source transmissionStateChanged
attr title "tx state, timeavg"
scalar testNetwork.serverMain[0].ppp[0].ppp rxPkOk:count 1977
attr interpolationmode none
attr recordingmode count
attr source rxPkOk
attr title "packets received OK, count"
scalar testNetwork.serverMain[0].ppp[0].ppp rxPkOk:sum(packetBytes) 610695
attr interpolationmode none
attr recordingmode sum(packetBytes)
attr source rxPkOk
attr title "packets received OK, sum(packetBytes)"
scalar testNetwork.serverMain[0].ppp[0].ppp txPk:count 1856
attr interpolationmode none
attr recordingmode count
attr source packetSentToLower
attr title "packets transmitted, count"
scalar testNetwork.serverMain[0].ppp[0].ppp txPk:sum(packetBytes) 109512
attr interpolationmode none
attr recordingmode sum(packetBytes)
attr source packetSentToLower
attr title "packets transmitted, sum(packetBytes)"
scalar testNetwork.serverMain[0].ppp[0].ppp rcvdPkFromHl:count 1856
attr interpolationmode none
attr recordingmode count
attr source packetReceivedFromUpper
attr title "packets received from higher layer, count"
scalar testNetwork.serverMain[0].ppp[0].ppp rcvdPkFromHl:sum(packetBytes) 96520
attr interpolationmode none
attr recordingmode sum(packetBytes)
attr source packetReceivedFromUpper
attr title "packets received from higher layer, sum(packetBytes)"
scalar testNetwork.serverMain[0].ppp[0].ppp passedUpPk:count 1977
attr interpolationmode none
attr recordingmode count
attr source packetSentToUpper
attr title "packets passed to higher layer, count"
scalar testNetwork.serverMain[0].ppp[0].ppp passedUpPk:sum(packetBytes) 596856
attr interpolationmode none
attr recordingmode sum(packetBytes)
attr source packetSentToUpper
attr title "packets passed to higher layer, sum(packetBytes)"
scalar testNetwork.serverMain[0].ppp[0].ppp packetDropIncorrectlyReceived:count 0
attr interpolationmode none
attr recordingmode count
attr source packetDropReasonIsIncorrectlyReceived(packetDropped)
attr title "packet drop: incorrectly received, count"
scalar testNetwork.serverMain[0].ppp[0].ppp packetDropIncorrectlyReceived:sum(packetBytes) 0
attr interpolationmode none
attr recordingmode sum(packetBytes)
attr source packetDropReasonIsIncorrectlyReceived(packetDropped)
attr title "packet drop: incorrectly received, sum(packetBytes)"
scalar testNetwork.serverMain[0].ppp[0].ppp packetDropInterfaceDown:count 0
attr interpolationmode none
attr recordingmode count
attr source packetDropReasonIsInterfaceDown(packetDropped)
attr title "packet drop: interface down, count"
scalar testNetwork.serverMain[0].ppp[0].ppp packetDropInterfaceDown:sum(packetBytes) 0
attr interpolationmode none
attr recordingmode sum(packetBytes)
attr source packetDropReasonIsInterfaceDown(packetDropped)
attr title "packet drop: interface down, sum(packetBytes)"
scalar testNetwork.serverMain[0].ppp[0] packetDropInterfaceDown:count 0
attr interpolationmode none
attr recordingmode count
attr source packetDropReasonIsInterfaceDown(packetDropped)
attr title "packet drops: interface down, count"
scalar testNetwork.serverMain[0].ppp[0] packetDropInterfaceDown:sum(packetBytes) 0
attr interpolationmode none
attr recordingmode sum(packetBytes)
attr source packetDropReasonIsInterfaceDown(packetDropped)
attr title "packet drops: interface down, sum(packetBytes)"
scalar testNetwork.serverMain[0].ppp[0] packetDropNoCarrier:count 0
attr interpolationmode none
attr recordingmode count
attr source packetDropReasonIsNoCarrier(packetDropped)
attr title "packet drops: no carrier, count"
scalar testNetwork.serverMain[0].ppp[0] packetDropNoCarrier:sum(packetBytes) 0
attr interpolationmode none
attr recordingmode sum(packetBytes)
attr source packetDropReasonIsNoCarrier(packetDropped)
attr title "packet drops: no carrier, sum(packetBytes)"
scalar testNetwork.serverMain[0].ipv4.ip packetDropAddressResolutionFailed:count 0
attr interpolationmode none
attr recordingmode count
attr source packetDropReasonIsAddressResolutionFailed(packetDropped)
attr title "packet drop: address resolution failed, count"
scalar testNetwork.serverMain[0].ipv4.ip packetDropAddressResolutionFailed:sum(packetBytes) 0
attr interpolationmode none
attr recordingmode sum(packetBytes)
attr source packetDropReasonIsAddressResolutionFailed(packetDropped)
attr title "packet drop: address resolution failed, sum(packetBytes)"
scalar testNetwork.serverMain[0].ipv4.ip packetDropHopLimitReached:count 0
attr interpolationmode none
attr recordingmode count
attr source packetDropReasonIsHopLimitReached(packetDropped)
attr title "packet drop: hop limit reached, count"
scalar testNetwork.serverMain[0].ipv4.ip packetDropHopLimitReached:sum(packetBytes) 0
attr interpolationmode none
attr recordingmode sum(packetBytes)
attr source packetDropReasonIsHopLimitReached(packetDropped)
attr title "packet drop: hop limit reached, sum(packetBytes)"
scalar testNetwork.serverMain[0].ipv4.ip packetDropForwardingDisabled:count 0
attr interpolationmode none
attr recordingmode count
attr source packetDropReasonIsForwardingDisabled(packetDropped)
attr title "packet drop: forwarding disabled, count"
scalar testNetwork.serverMain[0].ipv4.ip packetDropForwardingDisabled:sum(packetBytes) 0
attr interpolationmode none
attr recordingmode sum(packetBytes)
attr source packetDropReasonIsForwardingDisabled(packetDropped)
attr title "packet drop: forwarding disabled, sum(packetBytes)"
scalar testNetwork.serverMain[0].ipv4.ip packetDropNoInterfaceFound:count 0
attr interpolationmode none
attr recordingmode count
attr source packetDropReasonIsNoInterfaceFound(packetDropped)
attr title "packet drop: no interface found, count"
scalar testNetwork.serverMain[0].ipv4.ip packetDropNoInterfaceFound:sum(packetBytes) 0
attr interpolationmode none
attr recordingmode sum(packetBytes)
attr source packetDropReasonIsNoInterfaceFound(packetDropped)
attr title "packet drop: no interface found, sum(packetBytes)"
scalar testNetwork.serverMain[0].ipv4.ip packetDropNoRouteFound:count 0
attr interpolationmode none
attr recordingmode count
attr source packetDropReasonIsNoRouteFound(packetDropped)
attr title "packet drop: no route found, count"
scalar testNetwork.serverMain[0].ipv4.ip packetDropNoRouteFound:sum(packetBytes) 0
attr interpolationmode none
attr recordingmode sum(packetBytes)
attr source packetDropReasonIsNoRouteFound(packetDropped)
attr title "packet drop: no route found, sum(packetBytes)"
scalar testNetwork.serverMain[0].ipv4.ip packetDropUndefined:count 0
attr interpolationmode none
attr recordingmode count
attr source packetDropReasonIsUndefined(packetDropped)
attr title "packet drop: undefined, count"
scalar testNetwork.serverMain[0].ipv4.ip packetDropUndefined:sum(packetBytes) 0
attr interpolationmode none
attr recordingmode sum(packetBytes)
attr source packetDropReasonIsUndefined(packetDropped)
attr title "packet drop: undefined, sum(packetBytes)"
scalar testNetwork.serverMain[0].ipv4.arp arpResolutionFailed:count 0
attr recordingmode count
attr title "ARP failed resolutions, count"
scalar testNetwork.serverMain[0].ipv4.arp arpResolutionCompleted:count 0
attr recordingmode count
attr title "ARP completed resolutions, count"
scalar testNetwork.serverMain[0].ipv4.arp arpResolutionInitiated:count 0
attr recordingmode count
attr title "ARP initiated resolutions, count"
scalar testNetwork.serverMain[0].ipv4.arp arpReplySent:count 0
attr recordingmode count
attr source arpReplySent
attr title "ARP replies sent, count"
scalar testNetwork.serverMain[0].ipv4.arp arpReplySent:sum(packetBytes) 0
attr recordingmode sum(packetBytes)
attr source arpReplySent
attr title "ARP replies sent, sum(packetBytes)"
scalar testNetwork.serverMain[0].ipv4.arp arpRequestSent:count 0
attr recordingmode count
attr source arpRequestSent
attr title "ARP request sent, count"
scalar testNetwork.serverMain[0].ipv4.arp arpRequestSent:sum(packetBytes) 0
attr recordingmode sum(packetBytes)
attr source arpRequestSent
attr title "ARP request sent, sum(packetBytes)"
scalar testNetwork.serverMain[0].udp packetReceived:count 0
attr interpolationmode none
attr recordingmode count
attr source packetReceived
attr title "packets received, count"
scalar testNetwork.serverMain[0].udp packetReceived:sum(packetBytes) 0
attr interpolationmode none
attr recordingmode sum(packetBytes)
attr source packetReceived
attr title "packets received, sum(packetBytes)"
scalar testNetwork.serverMain[0].udp packetSent:count 0
attr interpolationmode none
attr recordingmode count
attr source packetSent
attr title "packets sent, count"
scalar testNetwork.serverMain[0].udp packetSent:sum(packetBytes) 0
attr interpolationmode none
attr recordingmode sum(packetBytes)
attr source packetSent
attr title "packets sent, sum(packetBytes)"
scalar testNetwork.serverMain[0].udp passedUpPk:count 0
attr interpolationmode none
attr recordingmode count
attr source packetSentToUpper
attr title "packets passed up, count"
scalar testNetwork.serverMain[0].udp droppedPkWrongPort:count 0
attr interpolationmode none
attr recordingmode count
attr source packetDropReasonIsNoPortFound(packetDropped)
attr title "packets dropped (wrong port), count"
scalar testNetwork.serverMain[0].udp droppedPkBadChecksum:count 0
attr interpolationmode none
attr recordingmode count
attr source packetDropReasonIsIncorrectlyReceived(packetDropped)
attr title "packets dropped (checksum error), count"

