version 3
run Orbit-0-20250108-11:31:56-12899
attr configname Orbit
attr datetime 20250108-11:31:56
attr datetimef 20250108-113156
attr experiment Orbit
attr inifile omnetpp.ini
attr iterationvars ""
attr iterationvarsd ""
attr iterationvarsf ""
attr measurement ""
attr network ObstacleTest
attr processid 12899
attr repetition 0
attr replication #0
attr resultdir results
attr runnumber 0
attr seedset 0
config **.param-recording false
config image-path /home/levy/workspace/inet/images
config output-scalar-file results/omnetpp.ini-Orbit-#0.sca
config output-vector-file results/omnetpp.ini-Orbit-#0.vec
config sim-time-limit 100s
config sim-time-limit 100s
config description "Wireless nodes send pings while orbiting around a sphere"
config *.numHosts 2
config *.host[*].osgModel "\"satellite.osgb.10.scale\""
config *.visualizer.*Visualizer.sceneVisualizer.axisLength 1000m
config *.visualizer.canvasVisualizer.sceneVisualizer.viewTranslation "\"25000 0\""
config *.visualizer.osgVisualizer.sceneVisualizer.displayScene false
config *.visualizer.*Visualizer.mediumVisualizer.signalPropagationAnimationSpeed 0.000001
config *.visualizer.*Visualizer.mediumVisualizer.signalTransmissionAnimationSpeed 0.0005
config *.physicalEnvironment.config "xmldoc(\"orbit.xml\")"
config *.host[*].app[0].startTime 0s
config *.host[*].wlan[*].radio.transmitter.power 5mW
config *.host[*].mobility.typename CircleMobility
config *.host[*].mobility.constraintAreaMinX 0m
config *.host[*].mobility.constraintAreaMinY 0m
config *.host[*].mobility.constraintAreaMinZ 0m
config *.host[*].mobility.constraintAreaMaxX 1000m
config *.host[*].mobility.constraintAreaMaxY 1000m
config *.host[*].mobility.constraintAreaMaxZ 1m
config *.host[*].mobility.cx 500m
config *.host[*].mobility.cy 500m
config *.host[*].mobility.speed "uniform(10mps, 100mps)"
config *.host[0].mobility.r 400m
config *.host[*].mobility.r 500m
config *.host[*].mobility.updateInterval 100ms
config network ObstacleTest
config num-rngs 3
config *.host[*].mobility.rng-0 1
config *.host[*].wlan[*].mac.rng-0 2
config *.visualizer.mediumVisualizer.displaySignals true
config *.visualizer.mediumVisualizer.displaySignalDepartures true
config *.visualizer.mediumVisualizer.displaySignalArrivals true
config *.visualizer.osgVisualizer.mediumVisualizer.signalDepartureImage "\"misc/rightup.gif\""
config *.visualizer.osgVisualizer.mediumVisualizer.signalArrivalImage "\"misc/rightdown.gif\""
config *.physicalEnvironment.spaceMinX 0m
config *.physicalEnvironment.spaceMinY 0m
config *.physicalEnvironment.spaceMinZ -1000m
config *.physicalEnvironment.spaceMaxX 1000m
config *.physicalEnvironment.spaceMaxY 1000m
config *.physicalEnvironment.spaceMaxZ 1000m
config *.radioMedium.obstacleLoss.typename DielectricObstacleLoss
config *.host[0].numApps 0
config *.host[*].numApps 1
config *.host[*].app[0].typename PingApp
config *.host[*].app[*].destAddr "\"host[0]\""
config **.app[*].printPing true

scalar ObstacleTest.radioMedium.propagation "Arrival computation count" 578
scalar ObstacleTest.radioMedium.obstacleLoss "Obstacle loss intersection computation count" 577
scalar ObstacleTest.radioMedium.obstacleLoss "Obstacle loss intersection count" 231
scalar ObstacleTest.radioMedium "transmission count" 578
scalar ObstacleTest.radioMedium "signal send count" 578
scalar ObstacleTest.radioMedium "reception computation count" 577
scalar ObstacleTest.radioMedium "interference computation count" 2312
scalar ObstacleTest.radioMedium "reception decision computation count" 171
scalar ObstacleTest.radioMedium "listening decision computation count" 1564
scalar ObstacleTest.radioMedium "reception cache hit" 79.546260191421
scalar ObstacleTest.radioMedium "interference cache hit" 66.666666666667
scalar ObstacleTest.radioMedium "noise cache hit" 0
scalar ObstacleTest.radioMedium "snir cache hit" 50
scalar ObstacleTest.radioMedium "reception decision cache hit" 50
scalar ObstacleTest.radioMedium "reception result cache hit" 0
scalar ObstacleTest.host[0].lo[0].lo rcvdPkFromHl:count 0
scalar ObstacleTest.host[0].lo[0].lo rcvdPkFromHl:sum(packetBytes) 0
scalar ObstacleTest.host[0].lo[0].lo passedUpPk:count 0
scalar ObstacleTest.host[0].lo[0].lo passedUpPk:sum(packetBytes) 0
scalar ObstacleTest.host[0].lo[0] packetDropInterfaceDown:count 0
scalar ObstacleTest.host[0].lo[0] packetDropInterfaceDown:sum(packetBytes) 0
scalar ObstacleTest.host[0].lo[0] packetDropNoCarrier:count 0
scalar ObstacleTest.host[0].lo[0] packetDropNoCarrier:sum(packetBytes) 0
scalar ObstacleTest.host[0].wlan[0].mac.dcf.channelAccess.pendingQueue queueLength:last 0
scalar ObstacleTest.host[0].wlan[0].mac.dcf.channelAccess.pendingQueue queueLength:max 1
scalar ObstacleTest.host[0].wlan[0].mac.dcf.channelAccess.pendingQueue queueLength:timeavg 0.00015398
scalar ObstacleTest.host[0].wlan[0].mac.dcf.channelAccess.pendingQueue queueBitLength:last 0
scalar ObstacleTest.host[0].wlan[0].mac.dcf.channelAccess.pendingQueue queueBitLength:max 960
scalar ObstacleTest.host[0].wlan[0].mac.dcf.channelAccess.pendingQueue queueBitLength:timeavg 0.1462528
scalar ObstacleTest.host[0].wlan[0].mac.dcf.channelAccess.pendingQueue outgoingPackets:count 43
scalar ObstacleTest.host[0].wlan[0].mac.dcf.channelAccess.pendingQueue outgoingPacketLengths:sum 40832
scalar ObstacleTest.host[0].wlan[0].mac.dcf.channelAccess.pendingQueue incomingPackets:count 43
scalar ObstacleTest.host[0].wlan[0].mac.dcf.channelAccess.pendingQueue incomingPacketLengths:sum 40832
scalar ObstacleTest.host[0].wlan[0].mac.dcf.channelAccess.pendingQueue droppedPacketsQueueOverflow:count 0
scalar ObstacleTest.host[0].wlan[0].mac.dcf.channelAccess.pendingQueue droppedPacketLengthsQueueOverflow:sum 0
scalar ObstacleTest.host[0].wlan[0].mac.dcf.channelAccess.inProgressFrames queueLength:max 1
scalar ObstacleTest.host[0].wlan[0].mac.dcf.channelAccess.inProgressFrames queueLength:timeavg 4.938997436e-05
scalar ObstacleTest.host[0].wlan[0].mac.dcf.channelAccess.contention channelAccessGranted:count 43
scalar ObstacleTest.host[0].wlan[0].mac.dcf.channelAccess.contention stateChanged:count 686
scalar ObstacleTest.host[0].wlan[0].mac.dcf.channelAccess channelOwnershipChanged:count 86
scalar ObstacleTest.host[0].wlan[0].mac.dcf.originatorMacDataService packetAggregated:count 0
scalar ObstacleTest.host[0].wlan[0].mac.dcf.originatorMacDataService packetFragmented:count 0
scalar ObstacleTest.host[0].wlan[0].mac.dcf.recipientMacDataService packetDeaggregated:count 0
scalar ObstacleTest.host[0].wlan[0].mac.dcf.recipientMacDataService packetDefragmented:count 43
scalar ObstacleTest.host[0].wlan[0].mac.dcf.recipientMacDataService packetDropDuplicateDetected:count 0
scalar ObstacleTest.host[0].wlan[0].mac.dcf.recipientMacDataService packetDropDuplicateDetected:sum(packetBytes) 0
scalar ObstacleTest.host[0].wlan[0].mac.dcf.recoveryProcedure retryLimitReached:count 0
scalar ObstacleTest.host[0].wlan[0].mac.dcf frameSequenceFinished:count 43
scalar ObstacleTest.host[0].wlan[0].mac.dcf packetReceivedFromPeer:count 86
scalar ObstacleTest.host[0].wlan[0].mac.dcf packetReceivedFromPeer:sum(packetBytes) 5706
scalar ObstacleTest.host[0].wlan[0].mac.dcf packetReceivedFromPeerUnicast:count 85
scalar ObstacleTest.host[0].wlan[0].mac.dcf packetReceivedFromPeerUnicast:sum(packetBytes) 5642
scalar ObstacleTest.host[0].wlan[0].mac.dcf packetReceivedFromPeerMulticast:count 1
scalar ObstacleTest.host[0].wlan[0].mac.dcf packetReceivedFromPeerMulticast:sum(packetBytes) 64
scalar ObstacleTest.host[0].wlan[0].mac.dcf packetReceivedFromPeerBroadcast:count 1
scalar ObstacleTest.host[0].wlan[0].mac.dcf packetReceivedFromPeerBroadcast:sum(packetBytes) 64
scalar ObstacleTest.host[0].wlan[0].mac.dcf packetReceivedFromPeerWithRetry:count 0
scalar ObstacleTest.host[0].wlan[0].mac.dcf packetReceivedFromPeerWithRetry:sum(packetBytes) 0
scalar ObstacleTest.host[0].wlan[0].mac.dcf packetReceivedFromPeerWithoutRetry:count 86
scalar ObstacleTest.host[0].wlan[0].mac.dcf packetReceivedFromPeerWithoutRetry:sum(packetBytes) 5706
scalar ObstacleTest.host[0].wlan[0].mac.dcf packetSentToPeer:count 85
scalar ObstacleTest.host[0].wlan[0].mac.dcf packetSentToPeer:sum(packetBytes) 5692
scalar ObstacleTest.host[0].wlan[0].mac.dcf packetSentToPeerUnicast:count 85
scalar ObstacleTest.host[0].wlan[0].mac.dcf packetSentToPeerUnicast:sum(packetBytes) 5692
scalar ObstacleTest.host[0].wlan[0].mac.dcf packetSentToPeerMulticast:count 0
scalar ObstacleTest.host[0].wlan[0].mac.dcf packetSentToPeerMulticast:sum(packetBytes) 0
scalar ObstacleTest.host[0].wlan[0].mac.dcf packetSentToPeerBroadcast:count 0
scalar ObstacleTest.host[0].wlan[0].mac.dcf packetSentToPeerBroadcast:sum(packetBytes) 0
scalar ObstacleTest.host[0].wlan[0].mac.dcf packetSentToPeerWithRetry:count 0
scalar ObstacleTest.host[0].wlan[0].mac.dcf packetSentToPeerWithRetry:sum(packetBytes) 0
scalar ObstacleTest.host[0].wlan[0].mac.dcf packetSentToPeerWithoutRetry:count 85
scalar ObstacleTest.host[0].wlan[0].mac.dcf packetSentToPeerWithoutRetry:sum(packetBytes) 5692
scalar ObstacleTest.host[0].wlan[0].mac.dcf packetDrop:count 0
scalar ObstacleTest.host[0].wlan[0].mac.dcf packetDrop:sum(packetBytes) 0
scalar ObstacleTest.host[0].wlan[0].mac.dcf packetDropNotAddressedToUs:count 0
scalar ObstacleTest.host[0].wlan[0].mac.dcf packetDropNotAddressedToUs:sum(packetBytes) 0
scalar ObstacleTest.host[0].wlan[0].mac.dcf packetDropQueueOverflow:count 0
scalar ObstacleTest.host[0].wlan[0].mac.dcf packetDropQueueOverflow:sum(packetBytes) 0
scalar ObstacleTest.host[0].wlan[0].mac.dcf packetDropRetryLimitReached:count 0
scalar ObstacleTest.host[0].wlan[0].mac.dcf packetDropRetryLimitReached:sum(packetBytes) 0
scalar ObstacleTest.host[0].wlan[0].mac.dcf linkBroken:count 0
scalar ObstacleTest.host[0].wlan[0].mac packetReceivedFromLower:count 86
scalar ObstacleTest.host[0].wlan[0].mac packetReceivedFromLower:sum(packetBytes) 5706
scalar ObstacleTest.host[0].wlan[0].mac packetSentToLower:count 85
scalar ObstacleTest.host[0].wlan[0].mac packetSentToLower:sum(packetBytes) 5692
scalar ObstacleTest.host[0].wlan[0].mac packetReceivedFromUpper:count 43
scalar ObstacleTest.host[0].wlan[0].mac packetReceivedFromUpper:sum(packetBytes) 3900
scalar ObstacleTest.host[0].wlan[0].mac packetSentToUpper:count 43
scalar ObstacleTest.host[0].wlan[0].mac packetSentToUpper:sum(packetBytes) 3900
scalar ObstacleTest.host[0].wlan[0].mac packetDrop:count 0
scalar ObstacleTest.host[0].wlan[0].mac packetDrop:sum(packetBytes) 0
scalar ObstacleTest.host[0].wlan[0].mac packetDropIncorrectlyReceived:count 0
scalar ObstacleTest.host[0].wlan[0].mac packetDropIncorrectlyReceived:sum(packetBytes) 0
scalar ObstacleTest.host[0].wlan[0].mac packetDropNotAddressedToUs:count 0
scalar ObstacleTest.host[0].wlan[0].mac packetDropNotAddressedToUs:sum(packetBytes) 0
scalar ObstacleTest.host[0].wlan[0].mac packetDropQueueOverflow:count 0
scalar ObstacleTest.host[0].wlan[0].mac packetDropQueueOverflow:sum(packetBytes) 0
scalar ObstacleTest.host[0].wlan[0].mac packetDropRetryLimitReached:count 0
scalar ObstacleTest.host[0].wlan[0].mac packetDropRetryLimitReached:sum(packetBytes) 0
scalar ObstacleTest.host[0].wlan[0].mac packetDropDuplicateDetected:count 0
scalar ObstacleTest.host[0].wlan[0].mac packetDropDuplicateDetected:sum(packetBytes) 0
scalar ObstacleTest.host[0].wlan[0].mac packetDropOther:count 0
scalar ObstacleTest.host[0].wlan[0].mac packetDropOther:sum(packetBytes) 0
scalar ObstacleTest.host[0].wlan[0].mac linkBroken:count 0
scalar ObstacleTest.host[0].wlan[0].radio radioMode:count 173
scalar ObstacleTest.host[0].wlan[0].radio receptionState:count 343
scalar ObstacleTest.host[0].wlan[0].radio transmissionState:count 340
scalar ObstacleTest.host[0].wlan[0] packetDropInterfaceDown:count 0
scalar ObstacleTest.host[0].wlan[0] packetDropInterfaceDown:sum(packetBytes) 0
scalar ObstacleTest.host[0].wlan[0] packetDropNoCarrier:count 0
scalar ObstacleTest.host[0].wlan[0] packetDropNoCarrier:sum(packetBytes) 0
scalar ObstacleTest.host[0].ipv4.ip packetDropAddressResolutionFailed:count 0
scalar ObstacleTest.host[0].ipv4.ip packetDropAddressResolutionFailed:sum(packetBytes) 0
scalar ObstacleTest.host[0].ipv4.ip packetDropHopLimitReached:count 0
scalar ObstacleTest.host[0].ipv4.ip packetDropHopLimitReached:sum(packetBytes) 0
scalar ObstacleTest.host[0].ipv4.ip packetDropForwardingDisabled:count 0
scalar ObstacleTest.host[0].ipv4.ip packetDropForwardingDisabled:sum(packetBytes) 0
scalar ObstacleTest.host[0].ipv4.ip packetDropLifetimeExpired:count 0
scalar ObstacleTest.host[0].ipv4.ip packetDropLifetimeExpired:sum(packetBytes) 0
scalar ObstacleTest.host[0].ipv4.ip packetDropNoInterfaceFound:count 0
scalar ObstacleTest.host[0].ipv4.ip packetDropNoInterfaceFound:sum(packetBytes) 0
scalar ObstacleTest.host[0].ipv4.ip packetDropNoRouteFound:count 0
scalar ObstacleTest.host[0].ipv4.ip packetDropNoRouteFound:sum(packetBytes) 0
scalar ObstacleTest.host[0].ipv4.ip packetDropUndefined:count 0
scalar ObstacleTest.host[0].ipv4.ip packetDropUndefined:sum(packetBytes) 0
scalar ObstacleTest.host[0].ipv4.arp arpResolutionFailed:count 0
scalar ObstacleTest.host[0].ipv4.arp arpResolutionCompleted:count 1
scalar ObstacleTest.host[0].ipv4.arp arpResolutionInitiated:count 0
scalar ObstacleTest.host[0].ipv4.arp arpReplySent:count 1
scalar ObstacleTest.host[0].ipv4.arp arpReplySent:sum(packetBytes) 28
scalar ObstacleTest.host[0].ipv4.arp arpRequestSent:count 0
scalar ObstacleTest.host[0].ipv4.arp arpRequestSent:sum(packetBytes) 0
scalar ObstacleTest.host[0].udp packetReceived:count 0
scalar ObstacleTest.host[0].udp packetReceived:sum(packetBytes) 0
scalar ObstacleTest.host[0].udp packetSent:count 0
scalar ObstacleTest.host[0].udp packetSent:sum(packetBytes) 0
scalar ObstacleTest.host[0].udp passedUpPk:count 0
scalar ObstacleTest.host[0].udp droppedPkWrongPort:count 0
scalar ObstacleTest.host[0].udp droppedPkBadChecksum:count 0
scalar ObstacleTest.host[1].lo[0].lo rcvdPkFromHl:count 0
scalar ObstacleTest.host[1].lo[0].lo rcvdPkFromHl:sum(packetBytes) 0
scalar ObstacleTest.host[1].lo[0].lo passedUpPk:count 0
scalar ObstacleTest.host[1].lo[0].lo passedUpPk:sum(packetBytes) 0
scalar ObstacleTest.host[1].lo[0] packetDropInterfaceDown:count 0
scalar ObstacleTest.host[1].lo[0] packetDropInterfaceDown:sum(packetBytes) 0
scalar ObstacleTest.host[1].lo[0] packetDropNoCarrier:count 0
scalar ObstacleTest.host[1].lo[0] packetDropNoCarrier:sum(packetBytes) 0
scalar ObstacleTest.host[1].wlan[0].mac.dcf.channelAccess.pendingQueue queueLength:last 0
scalar ObstacleTest.host[1].wlan[0].mac.dcf.channelAccess.pendingQueue queueLength:max 1
scalar ObstacleTest.host[1].wlan[0].mac.dcf.channelAccess.pendingQueue queueLength:timeavg 8.04e-06
scalar ObstacleTest.host[1].wlan[0].mac.dcf.channelAccess.pendingQueue queueBitLength:last 0
scalar ObstacleTest.host[1].wlan[0].mac.dcf.channelAccess.pendingQueue queueBitLength:max 960
scalar ObstacleTest.host[1].wlan[0].mac.dcf.channelAccess.pendingQueue queueBitLength:timeavg 0.0064192
scalar ObstacleTest.host[1].wlan[0].mac.dcf.channelAccess.pendingQueue outgoingPackets:count 102
scalar ObstacleTest.host[1].wlan[0].mac.dcf.channelAccess.pendingQueue outgoingPacketLengths:sum 97472
scalar ObstacleTest.host[1].wlan[0].mac.dcf.channelAccess.pendingQueue incomingPackets:count 102
scalar ObstacleTest.host[1].wlan[0].mac.dcf.channelAccess.pendingQueue incomingPacketLengths:sum 97472
scalar ObstacleTest.host[1].wlan[0].mac.dcf.channelAccess.pendingQueue droppedPacketsQueueOverflow:count 0
scalar ObstacleTest.host[1].wlan[0].mac.dcf.channelAccess.pendingQueue droppedPacketLengthsQueueOverflow:sum 0
scalar ObstacleTest.host[1].wlan[0].mac.dcf.channelAccess.inProgressFrames queueLength:max 1
scalar ObstacleTest.host[1].wlan[0].mac.dcf.channelAccess.inProgressFrames queueLength:timeavg 0.03525015621261
scalar ObstacleTest.host[1].wlan[0].mac.dcf.channelAccess.contention channelAccessGranted:count 450
scalar ObstacleTest.host[1].wlan[0].mac.dcf.channelAccess.contention stateChanged:count 3944
scalar ObstacleTest.host[1].wlan[0].mac.dcf.channelAccess channelOwnershipChanged:count 899
scalar ObstacleTest.host[1].wlan[0].mac.dcf.originatorMacDataService packetAggregated:count 0
scalar ObstacleTest.host[1].wlan[0].mac.dcf.originatorMacDataService packetFragmented:count 0
scalar ObstacleTest.host[1].wlan[0].mac.dcf.recipientMacDataService packetDeaggregated:count 0
scalar ObstacleTest.host[1].wlan[0].mac.dcf.recipientMacDataService packetDefragmented:count 43
scalar ObstacleTest.host[1].wlan[0].mac.dcf.recipientMacDataService packetDropDuplicateDetected:count 0
scalar ObstacleTest.host[1].wlan[0].mac.dcf.recipientMacDataService packetDropDuplicateDetected:sum(packetBytes) 0
scalar ObstacleTest.host[1].wlan[0].mac.dcf.recoveryProcedure retryLimitReached:count 58
scalar ObstacleTest.host[1].wlan[0].mac.dcf frameSequenceFinished:count 449
scalar ObstacleTest.host[1].wlan[0].mac.dcf packetReceivedFromPeer:count 85
scalar ObstacleTest.host[1].wlan[0].mac.dcf packetReceivedFromPeer:sum(packetBytes) 5692
scalar ObstacleTest.host[1].wlan[0].mac.dcf packetReceivedFromPeerUnicast:count 85
scalar ObstacleTest.host[1].wlan[0].mac.dcf packetReceivedFromPeerUnicast:sum(packetBytes) 5692
scalar ObstacleTest.host[1].wlan[0].mac.dcf packetReceivedFromPeerMulticast:count 0
scalar ObstacleTest.host[1].wlan[0].mac.dcf packetReceivedFromPeerMulticast:sum(packetBytes) 0
scalar ObstacleTest.host[1].wlan[0].mac.dcf packetReceivedFromPeerBroadcast:count 0
scalar ObstacleTest.host[1].wlan[0].mac.dcf packetReceivedFromPeerBroadcast:sum(packetBytes) 0
scalar ObstacleTest.host[1].wlan[0].mac.dcf packetReceivedFromPeerWithRetry:count 0
scalar ObstacleTest.host[1].wlan[0].mac.dcf packetReceivedFromPeerWithRetry:sum(packetBytes) 0
scalar ObstacleTest.host[1].wlan[0].mac.dcf packetReceivedFromPeerWithoutRetry:count 85
scalar ObstacleTest.host[1].wlan[0].mac.dcf packetReceivedFromPeerWithoutRetry:sum(packetBytes) 5692
scalar ObstacleTest.host[1].wlan[0].mac.dcf packetSentToPeer:count 492
scalar ObstacleTest.host[1].wlan[0].mac.dcf packetSentToPeer:sum(packetBytes) 54426
scalar ObstacleTest.host[1].wlan[0].mac.dcf packetSentToPeerUnicast:count 491
scalar ObstacleTest.host[1].wlan[0].mac.dcf packetSentToPeerUnicast:sum(packetBytes) 54362
scalar ObstacleTest.host[1].wlan[0].mac.dcf packetSentToPeerMulticast:count 1
scalar ObstacleTest.host[1].wlan[0].mac.dcf packetSentToPeerMulticast:sum(packetBytes) 64
scalar ObstacleTest.host[1].wlan[0].mac.dcf packetSentToPeerBroadcast:count 1
scalar ObstacleTest.host[1].wlan[0].mac.dcf packetSentToPeerBroadcast:sum(packetBytes) 64
scalar ObstacleTest.host[1].wlan[0].mac.dcf packetSentToPeerWithRetry:count 348
scalar ObstacleTest.host[1].wlan[0].mac.dcf packetSentToPeerWithRetry:sum(packetBytes) 41760
scalar ObstacleTest.host[1].wlan[0].mac.dcf packetSentToPeerWithoutRetry:count 144
scalar ObstacleTest.host[1].wlan[0].mac.dcf packetSentToPeerWithoutRetry:sum(packetBytes) 12666
scalar ObstacleTest.host[1].wlan[0].mac.dcf packetDrop:count 58
scalar ObstacleTest.host[1].wlan[0].mac.dcf packetDrop:sum(packetBytes) 6960
scalar ObstacleTest.host[1].wlan[0].mac.dcf packetDropNotAddressedToUs:count 0
scalar ObstacleTest.host[1].wlan[0].mac.dcf packetDropNotAddressedToUs:sum(packetBytes) 0
scalar ObstacleTest.host[1].wlan[0].mac.dcf packetDropQueueOverflow:count 0
scalar ObstacleTest.host[1].wlan[0].mac.dcf packetDropQueueOverflow:sum(packetBytes) 0
scalar ObstacleTest.host[1].wlan[0].mac.dcf packetDropRetryLimitReached:count 58
scalar ObstacleTest.host[1].wlan[0].mac.dcf packetDropRetryLimitReached:sum(packetBytes) 6960
scalar ObstacleTest.host[1].wlan[0].mac.dcf linkBroken:count 58
scalar ObstacleTest.host[1].wlan[0].mac packetReceivedFromLower:count 85
scalar ObstacleTest.host[1].wlan[0].mac packetReceivedFromLower:sum(packetBytes) 5692
scalar ObstacleTest.host[1].wlan[0].mac packetSentToLower:count 493
scalar ObstacleTest.host[1].wlan[0].mac packetSentToLower:sum(packetBytes) 54546
scalar ObstacleTest.host[1].wlan[0].mac packetReceivedFromUpper:count 102
scalar ObstacleTest.host[1].wlan[0].mac packetReceivedFromUpper:sum(packetBytes) 9328
scalar ObstacleTest.host[1].wlan[0].mac packetSentToUpper:count 43
scalar ObstacleTest.host[1].wlan[0].mac packetSentToUpper:sum(packetBytes) 3900
scalar ObstacleTest.host[1].wlan[0].mac packetDrop:count 58
scalar ObstacleTest.host[1].wlan[0].mac packetDrop:sum(packetBytes) 6960
scalar ObstacleTest.host[1].wlan[0].mac packetDropIncorrectlyReceived:count 0
scalar ObstacleTest.host[1].wlan[0].mac packetDropIncorrectlyReceived:sum(packetBytes) 0
scalar ObstacleTest.host[1].wlan[0].mac packetDropNotAddressedToUs:count 0
scalar ObstacleTest.host[1].wlan[0].mac packetDropNotAddressedToUs:sum(packetBytes) 0
scalar ObstacleTest.host[1].wlan[0].mac packetDropQueueOverflow:count 0
scalar ObstacleTest.host[1].wlan[0].mac packetDropQueueOverflow:sum(packetBytes) 0
scalar ObstacleTest.host[1].wlan[0].mac packetDropRetryLimitReached:count 58
scalar ObstacleTest.host[1].wlan[0].mac packetDropRetryLimitReached:sum(packetBytes) 6960
scalar ObstacleTest.host[1].wlan[0].mac packetDropDuplicateDetected:count 0
scalar ObstacleTest.host[1].wlan[0].mac packetDropDuplicateDetected:sum(packetBytes) 0
scalar ObstacleTest.host[1].wlan[0].mac packetDropOther:count 0
scalar ObstacleTest.host[1].wlan[0].mac packetDropOther:sum(packetBytes) 0
scalar ObstacleTest.host[1].wlan[0].mac linkBroken:count 58
scalar ObstacleTest.host[1].wlan[0].radio radioMode:count 988
scalar ObstacleTest.host[1].wlan[0].radio receptionState:count 1156
scalar ObstacleTest.host[1].wlan[0].radio transmissionState:count 1970
scalar ObstacleTest.host[1].wlan[0] packetDropInterfaceDown:count 0
scalar ObstacleTest.host[1].wlan[0] packetDropInterfaceDown:sum(packetBytes) 0
scalar ObstacleTest.host[1].wlan[0] packetDropNoCarrier:count 0
scalar ObstacleTest.host[1].wlan[0] packetDropNoCarrier:sum(packetBytes) 0
scalar ObstacleTest.host[1].ipv4.ip packetDropAddressResolutionFailed:count 0
scalar ObstacleTest.host[1].ipv4.ip packetDropAddressResolutionFailed:sum(packetBytes) 0
scalar ObstacleTest.host[1].ipv4.ip packetDropHopLimitReached:count 0
scalar ObstacleTest.host[1].ipv4.ip packetDropHopLimitReached:sum(packetBytes) 0
scalar ObstacleTest.host[1].ipv4.ip packetDropForwardingDisabled:count 0
scalar ObstacleTest.host[1].ipv4.ip packetDropForwardingDisabled:sum(packetBytes) 0
scalar ObstacleTest.host[1].ipv4.ip packetDropLifetimeExpired:count 0
scalar ObstacleTest.host[1].ipv4.ip packetDropLifetimeExpired:sum(packetBytes) 0
scalar ObstacleTest.host[1].ipv4.ip packetDropNoInterfaceFound:count 0
scalar ObstacleTest.host[1].ipv4.ip packetDropNoInterfaceFound:sum(packetBytes) 0
scalar ObstacleTest.host[1].ipv4.ip packetDropNoRouteFound:count 0
scalar ObstacleTest.host[1].ipv4.ip packetDropNoRouteFound:sum(packetBytes) 0
scalar ObstacleTest.host[1].ipv4.ip packetDropUndefined:count 0
scalar ObstacleTest.host[1].ipv4.ip packetDropUndefined:sum(packetBytes) 0
scalar ObstacleTest.host[1].ipv4.arp arpResolutionFailed:count 0
scalar ObstacleTest.host[1].ipv4.arp arpResolutionCompleted:count 1
scalar ObstacleTest.host[1].ipv4.arp arpResolutionInitiated:count 1
scalar ObstacleTest.host[1].ipv4.arp arpReplySent:count 0
scalar ObstacleTest.host[1].ipv4.arp arpReplySent:sum(packetBytes) 0
scalar ObstacleTest.host[1].ipv4.arp arpRequestSent:count 1
scalar ObstacleTest.host[1].ipv4.arp arpRequestSent:sum(packetBytes) 28
scalar ObstacleTest.host[1].udp packetReceived:count 0
scalar ObstacleTest.host[1].udp packetReceived:sum(packetBytes) 0
scalar ObstacleTest.host[1].udp packetSent:count 0
scalar ObstacleTest.host[1].udp packetSent:sum(packetBytes) 0
scalar ObstacleTest.host[1].udp passedUpPk:count 0
scalar ObstacleTest.host[1].udp droppedPkWrongPort:count 0
scalar ObstacleTest.host[1].udp droppedPkBadChecksum:count 0
scalar ObstacleTest.host[1].app[0] "Pings sent" 101
scalar ObstacleTest.host[1].app[0] "ping loss rate (%)" 58.415841584158
scalar ObstacleTest.host[1].app[0] "ping out-of-order rate (%)" 0
scalar ObstacleTest.host[1].app[0] pingRxSeq:count 42
scalar ObstacleTest.host[1].app[0] pingTxSeq:count 101
scalar ObstacleTest.host[1].app[0] numOutOfOrderArrivals:last nan
scalar ObstacleTest.host[1].app[0] numLost:last nan
scalar ObstacleTest.host[0].wlan[0].mac.dcf.channelAccess.pendingQueue queueingTime:histogram:count 43
scalar ObstacleTest.host[0].wlan[0].mac.dcf.channelAccess.pendingQueue queueingTime:histogram:sumweights 43
scalar ObstacleTest.host[0].wlan[0].mac.dcf.channelAccess.pendingQueue queueingTime:histogram:mean 0.00035809302325581
scalar ObstacleTest.host[0].wlan[0].mac.dcf.channelAccess.pendingQueue queueingTime:histogram:stddev 0.00019126742858072
scalar ObstacleTest.host[0].wlan[0].mac.dcf.channelAccess.pendingQueue queueingTime:histogram:min 9.4e-05
scalar ObstacleTest.host[0].wlan[0].mac.dcf.channelAccess.pendingQueue queueingTime:histogram:max 0.000714
scalar ObstacleTest.host[0].wlan[0].mac.dcf.channelAccess.pendingQueue queueingTime:histogram:numbins 87
scalar ObstacleTest.host[0].wlan[0].mac.dcf.channelAccess.pendingQueue queueingTime:histogram:rangemin 0
scalar ObstacleTest.host[0].wlan[0].mac.dcf.channelAccess.pendingQueue queueingTime:histogram:rangemax 0.00087
scalar ObstacleTest.host[0].wlan[0].mac.dcf.channelAccess.pendingQueue queueingTime:histogram:underflows 0
scalar ObstacleTest.host[0].wlan[0].mac.dcf.channelAccess.pendingQueue queueingTime:histogram:overflows 0
scalar ObstacleTest.host[0].wlan[0].mac.dcf.channelAccess.pendingQueue outgoingPacketLengths:histogram:count 43
scalar ObstacleTest.host[0].wlan[0].mac.dcf.channelAccess.pendingQueue outgoingPacketLengths:histogram:sumweights 43
scalar ObstacleTest.host[0].wlan[0].mac.dcf.channelAccess.pendingQueue outgoingPacketLengths:histogram:mean 949.58139534884
scalar ObstacleTest.host[0].wlan[0].mac.dcf.channelAccess.pendingQueue outgoingPacketLengths:histogram:stddev 68.319359509007
scalar ObstacleTest.host[0].wlan[0].mac.dcf.channelAccess.pendingQueue outgoingPacketLengths:histogram:min 512
scalar ObstacleTest.host[0].wlan[0].mac.dcf.channelAccess.pendingQueue outgoingPacketLengths:histogram:max 960
scalar ObstacleTest.host[0].wlan[0].mac.dcf.channelAccess.pendingQueue outgoingPacketLengths:histogram:numbins 68
scalar ObstacleTest.host[0].wlan[0].mac.dcf.channelAccess.pendingQueue outgoingPacketLengths:histogram:rangemin 400
scalar ObstacleTest.host[0].wlan[0].mac.dcf.channelAccess.pendingQueue outgoingPacketLengths:histogram:rangemax 1080
scalar ObstacleTest.host[0].wlan[0].mac.dcf.channelAccess.pendingQueue outgoingPacketLengths:histogram:underflows 0
scalar ObstacleTest.host[0].wlan[0].mac.dcf.channelAccess.pendingQueue outgoingPacketLengths:histogram:overflows 0
scalar ObstacleTest.host[0].wlan[0].mac.dcf.channelAccess.pendingQueue flowQueueingTime:histogram:count 0
scalar ObstacleTest.host[0].wlan[0].mac.dcf.channelAccess.pendingQueue flowQueueingTime:histogram:sumweights 0
scalar ObstacleTest.host[0].wlan[0].mac.dcf.channelAccess.pendingQueue flowQueueingTime:histogram:mean -nan
scalar ObstacleTest.host[0].wlan[0].mac.dcf.channelAccess.pendingQueue flowQueueingTime:histogram:stddev nan
scalar ObstacleTest.host[0].wlan[0].mac.dcf.channelAccess.pendingQueue flowQueueingTime:histogram:min nan
scalar ObstacleTest.host[0].wlan[0].mac.dcf.channelAccess.pendingQueue flowQueueingTime:histogram:max nan
scalar ObstacleTest.host[0].wlan[0].mac.dcf.channelAccess.pendingQueue flowQueueingTime:histogram:numbins 1
scalar ObstacleTest.host[0].wlan[0].mac.dcf.channelAccess.pendingQueue flowQueueingTime:histogram:rangemin 0
scalar ObstacleTest.host[0].wlan[0].mac.dcf.channelAccess.pendingQueue flowQueueingTime:histogram:rangemax 1
scalar ObstacleTest.host[0].wlan[0].mac.dcf.channelAccess.pendingQueue flowQueueingTime:histogram:underflows 0
scalar ObstacleTest.host[0].wlan[0].mac.dcf.channelAccess.pendingQueue flowQueueingTime:histogram:overflows 0
scalar ObstacleTest.host[0].wlan[0].mac.dcf.channelAccess.pendingQueue incomingPacketLengths:histogram:count 43
scalar ObstacleTest.host[0].wlan[0].mac.dcf.channelAccess.pendingQueue incomingPacketLengths:histogram:sumweights 43
scalar ObstacleTest.host[0].wlan[0].mac.dcf.channelAccess.pendingQueue incomingPacketLengths:histogram:mean 949.58139534884
scalar ObstacleTest.host[0].wlan[0].mac.dcf.channelAccess.pendingQueue incomingPacketLengths:histogram:stddev 68.319359509007
scalar ObstacleTest.host[0].wlan[0].mac.dcf.channelAccess.pendingQueue incomingPacketLengths:histogram:min 512
scalar ObstacleTest.host[0].wlan[0].mac.dcf.channelAccess.pendingQueue incomingPacketLengths:histogram:max 960
scalar ObstacleTest.host[0].wlan[0].mac.dcf.channelAccess.pendingQueue incomingPacketLengths:histogram:numbins 68
scalar ObstacleTest.host[0].wlan[0].mac.dcf.channelAccess.pendingQueue incomingPacketLengths:histogram:rangemin 400
scalar ObstacleTest.host[0].wlan[0].mac.dcf.channelAccess.pendingQueue incomingPacketLengths:histogram:rangemax 1080
scalar ObstacleTest.host[0].wlan[0].mac.dcf.channelAccess.pendingQueue incomingPacketLengths:histogram:underflows 0
scalar ObstacleTest.host[0].wlan[0].mac.dcf.channelAccess.pendingQueue incomingPacketLengths:histogram:overflows 0
scalar ObstacleTest.host[0].wlan[0].mac.dcf.channelAccess.inProgressFrames queueingTime:histogram:count 43
scalar ObstacleTest.host[0].wlan[0].mac.dcf.channelAccess.inProgressFrames queueingTime:histogram:sumweights 43
scalar ObstacleTest.host[0].wlan[0].mac.dcf.channelAccess.inProgressFrames queueingTime:histogram:mean 0.00011486040548837
scalar ObstacleTest.host[0].wlan[0].mac.dcf.channelAccess.inProgressFrames queueingTime:histogram:stddev 3.0958702169181e-06
scalar ObstacleTest.host[0].wlan[0].mac.dcf.channelAccess.inProgressFrames queueingTime:histogram:min 9.5375705e-05
scalar ObstacleTest.host[0].wlan[0].mac.dcf.channelAccess.inProgressFrames queueingTime:histogram:max 0.000116569893
scalar ObstacleTest.host[0].wlan[0].mac.dcf.channelAccess.inProgressFrames queueingTime:histogram:numbins 64
scalar ObstacleTest.host[0].wlan[0].mac.dcf.channelAccess.inProgressFrames queueingTime:histogram:rangemin 9e-05
scalar ObstacleTest.host[0].wlan[0].mac.dcf.channelAccess.inProgressFrames queueingTime:histogram:rangemax 0.000122
scalar ObstacleTest.host[0].wlan[0].mac.dcf.channelAccess.inProgressFrames queueingTime:histogram:underflows 0
scalar ObstacleTest.host[0].wlan[0].mac.dcf.channelAccess.inProgressFrames queueingTime:histogram:overflows 0
scalar ObstacleTest.host[0].wlan[0].mac.dcf frameSequenceDuration:histogram:count 43
scalar ObstacleTest.host[0].wlan[0].mac.dcf frameSequenceDuration:histogram:sumweights 43
scalar ObstacleTest.host[0].wlan[0].mac.dcf frameSequenceDuration:histogram:mean 0.00011486040548837
scalar ObstacleTest.host[0].wlan[0].mac.dcf frameSequenceDuration:histogram:stddev 3.0958702169181e-06
scalar ObstacleTest.host[0].wlan[0].mac.dcf frameSequenceDuration:histogram:min 9.5375705e-05
scalar ObstacleTest.host[0].wlan[0].mac.dcf frameSequenceDuration:histogram:max 0.000116569893
scalar ObstacleTest.host[0].wlan[0].mac.dcf frameSequenceDuration:histogram:numbins 64
scalar ObstacleTest.host[0].wlan[0].mac.dcf frameSequenceDuration:histogram:rangemin 9e-05
scalar ObstacleTest.host[0].wlan[0].mac.dcf frameSequenceDuration:histogram:rangemax 0.000122
scalar ObstacleTest.host[0].wlan[0].mac.dcf frameSequenceDuration:histogram:underflows 0
scalar ObstacleTest.host[0].wlan[0].mac.dcf frameSequenceDuration:histogram:overflows 0
scalar ObstacleTest.host[0].wlan[0].mac.dcf frameSequenceNumPackets:histogram:count 43
scalar ObstacleTest.host[0].wlan[0].mac.dcf frameSequenceNumPackets:histogram:sumweights 43
scalar ObstacleTest.host[0].wlan[0].mac.dcf frameSequenceNumPackets:histogram:mean 2
scalar ObstacleTest.host[0].wlan[0].mac.dcf frameSequenceNumPackets:histogram:stddev 0
scalar ObstacleTest.host[0].wlan[0].mac.dcf frameSequenceNumPackets:histogram:min 2
scalar ObstacleTest.host[0].wlan[0].mac.dcf frameSequenceNumPackets:histogram:max 2
scalar ObstacleTest.host[0].wlan[0].mac.dcf frameSequenceNumPackets:histogram:numbins 2
scalar ObstacleTest.host[0].wlan[0].mac.dcf frameSequenceNumPackets:histogram:rangemin 1
scalar ObstacleTest.host[0].wlan[0].mac.dcf frameSequenceNumPackets:histogram:rangemax 3
scalar ObstacleTest.host[0].wlan[0].mac.dcf frameSequenceNumPackets:histogram:underflows 0
scalar ObstacleTest.host[0].wlan[0].mac.dcf frameSequenceNumPackets:histogram:overflows 0
scalar ObstacleTest.host[0].wlan[0].radio radioChannel:histogram:count 1
scalar ObstacleTest.host[0].wlan[0].radio radioChannel:histogram:sumweights 1
scalar ObstacleTest.host[0].wlan[0].radio radioChannel:histogram:mean 0
scalar ObstacleTest.host[0].wlan[0].radio radioChannel:histogram:stddev nan
scalar ObstacleTest.host[0].wlan[0].radio radioChannel:histogram:min 0
scalar ObstacleTest.host[0].wlan[0].radio radioChannel:histogram:max 0
scalar ObstacleTest.host[0].wlan[0].radio radioChannel:histogram:numbins 50
scalar ObstacleTest.host[0].wlan[0].radio radioChannel:histogram:rangemin -0.5
scalar ObstacleTest.host[0].wlan[0].radio radioChannel:histogram:rangemax 0.5
scalar ObstacleTest.host[0].wlan[0].radio radioChannel:histogram:underflows 0
scalar ObstacleTest.host[0].wlan[0].radio radioChannel:histogram:overflows 0
scalar ObstacleTest.host[0].wlan[0].radio minSnir:histogram:count 86
scalar ObstacleTest.host[0].wlan[0].radio minSnir:histogram:sumweights 86
scalar ObstacleTest.host[0].wlan[0].radio minSnir:histogram:mean 2018.4686195766
scalar ObstacleTest.host[0].wlan[0].radio minSnir:histogram:stddev 1472.9294643426
scalar ObstacleTest.host[0].wlan[0].radio minSnir:histogram:min 329.62815946698
scalar ObstacleTest.host[0].wlan[0].radio minSnir:histogram:max 4888.7141812149
scalar ObstacleTest.host[0].wlan[0].radio minSnir:histogram:numbins 61
scalar ObstacleTest.host[0].wlan[0].radio minSnir:histogram:rangemin 0
scalar ObstacleTest.host[0].wlan[0].radio minSnir:histogram:rangemax 6100
scalar ObstacleTest.host[0].wlan[0].radio minSnir:histogram:underflows 0
scalar ObstacleTest.host[0].wlan[0].radio minSnir:histogram:overflows 0
scalar ObstacleTest.host[0].wlan[0].radio packetErrorRate:histogram:count 86
scalar ObstacleTest.host[0].wlan[0].radio packetErrorRate:histogram:sumweights 86
scalar ObstacleTest.host[0].wlan[0].radio packetErrorRate:histogram:mean 0
scalar ObstacleTest.host[0].wlan[0].radio packetErrorRate:histogram:stddev 0
scalar ObstacleTest.host[0].wlan[0].radio packetErrorRate:histogram:min 0
scalar ObstacleTest.host[0].wlan[0].radio packetErrorRate:histogram:max 0
scalar ObstacleTest.host[0].wlan[0].radio packetErrorRate:histogram:numbins 50
scalar ObstacleTest.host[0].wlan[0].radio packetErrorRate:histogram:rangemin -0.5
scalar ObstacleTest.host[0].wlan[0].radio packetErrorRate:histogram:rangemax 0.5
scalar ObstacleTest.host[0].wlan[0].radio packetErrorRate:histogram:underflows 0
scalar ObstacleTest.host[0].wlan[0].radio packetErrorRate:histogram:overflows 0
scalar ObstacleTest.host[0].wlan[0].radio bitErrorRate:histogram:count 0
scalar ObstacleTest.host[0].wlan[0].radio bitErrorRate:histogram:sumweights 0
scalar ObstacleTest.host[0].wlan[0].radio bitErrorRate:histogram:mean -nan
scalar ObstacleTest.host[0].wlan[0].radio bitErrorRate:histogram:stddev nan
scalar ObstacleTest.host[0].wlan[0].radio bitErrorRate:histogram:min nan
scalar ObstacleTest.host[0].wlan[0].radio bitErrorRate:histogram:max nan
scalar ObstacleTest.host[0].wlan[0].radio bitErrorRate:histogram:numbins 1
scalar ObstacleTest.host[0].wlan[0].radio bitErrorRate:histogram:rangemin 0
scalar ObstacleTest.host[0].wlan[0].radio bitErrorRate:histogram:rangemax 1
scalar ObstacleTest.host[0].wlan[0].radio bitErrorRate:histogram:underflows 0
scalar ObstacleTest.host[0].wlan[0].radio bitErrorRate:histogram:overflows 0
scalar ObstacleTest.host[0].wlan[0].radio symbolErrorRate:histogram:count 0
scalar ObstacleTest.host[0].wlan[0].radio symbolErrorRate:histogram:sumweights 0
scalar ObstacleTest.host[0].wlan[0].radio symbolErrorRate:histogram:mean -nan
scalar ObstacleTest.host[0].wlan[0].radio symbolErrorRate:histogram:stddev nan
scalar ObstacleTest.host[0].wlan[0].radio symbolErrorRate:histogram:min nan
scalar ObstacleTest.host[0].wlan[0].radio symbolErrorRate:histogram:max nan
scalar ObstacleTest.host[0].wlan[0].radio symbolErrorRate:histogram:numbins 1
scalar ObstacleTest.host[0].wlan[0].radio symbolErrorRate:histogram:rangemin 0
scalar ObstacleTest.host[0].wlan[0].radio symbolErrorRate:histogram:rangemax 1
scalar ObstacleTest.host[0].wlan[0].radio symbolErrorRate:histogram:underflows 0
scalar ObstacleTest.host[0].wlan[0].radio symbolErrorRate:histogram:overflows 0
scalar ObstacleTest.host[1].wlan[0].mac.dcf.channelAccess.pendingQueue queueingTime:histogram:count 102
scalar ObstacleTest.host[1].wlan[0].mac.dcf.channelAccess.pendingQueue queueingTime:histogram:sumweights 102
scalar ObstacleTest.host[1].wlan[0].mac.dcf.channelAccess.pendingQueue queueingTime:histogram:mean 7.8823529411765e-06
scalar ObstacleTest.host[1].wlan[0].mac.dcf.channelAccess.pendingQueue queueingTime:histogram:stddev 5.8187013984128e-05
scalar ObstacleTest.host[1].wlan[0].mac.dcf.channelAccess.pendingQueue queueingTime:histogram:min 0
scalar ObstacleTest.host[1].wlan[0].mac.dcf.channelAccess.pendingQueue queueingTime:histogram:max 0.000514
scalar ObstacleTest.host[1].wlan[0].mac.dcf.channelAccess.pendingQueue queueingTime:histogram:numbins 65
scalar ObstacleTest.host[1].wlan[0].mac.dcf.channelAccess.pendingQueue queueingTime:histogram:rangemin 0
scalar ObstacleTest.host[1].wlan[0].mac.dcf.channelAccess.pendingQueue queueingTime:histogram:rangemax 0.00065
scalar ObstacleTest.host[1].wlan[0].mac.dcf.channelAccess.pendingQueue queueingTime:histogram:underflows 0
scalar ObstacleTest.host[1].wlan[0].mac.dcf.channelAccess.pendingQueue queueingTime:histogram:overflows 0
scalar ObstacleTest.host[1].wlan[0].mac.dcf.channelAccess.pendingQueue outgoingPacketLengths:histogram:count 102
scalar ObstacleTest.host[1].wlan[0].mac.dcf.channelAccess.pendingQueue outgoingPacketLengths:histogram:sumweights 102
scalar ObstacleTest.host[1].wlan[0].mac.dcf.channelAccess.pendingQueue outgoingPacketLengths:histogram:mean 955.60784313725
scalar ObstacleTest.host[1].wlan[0].mac.dcf.channelAccess.pendingQueue outgoingPacketLengths:histogram:stddev 44.358609925355
scalar ObstacleTest.host[1].wlan[0].mac.dcf.channelAccess.pendingQueue outgoingPacketLengths:histogram:min 512
scalar ObstacleTest.host[1].wlan[0].mac.dcf.channelAccess.pendingQueue outgoingPacketLengths:histogram:max 960
scalar ObstacleTest.host[1].wlan[0].mac.dcf.channelAccess.pendingQueue outgoingPacketLengths:histogram:numbins 68
scalar ObstacleTest.host[1].wlan[0].mac.dcf.channelAccess.pendingQueue outgoingPacketLengths:histogram:rangemin 400
scalar ObstacleTest.host[1].wlan[0].mac.dcf.channelAccess.pendingQueue outgoingPacketLengths:histogram:rangemax 1080
scalar ObstacleTest.host[1].wlan[0].mac.dcf.channelAccess.pendingQueue outgoingPacketLengths:histogram:underflows 0
scalar ObstacleTest.host[1].wlan[0].mac.dcf.channelAccess.pendingQueue outgoingPacketLengths:histogram:overflows 0
scalar ObstacleTest.host[1].wlan[0].mac.dcf.channelAccess.pendingQueue flowQueueingTime:histogram:count 0
scalar ObstacleTest.host[1].wlan[0].mac.dcf.channelAccess.pendingQueue flowQueueingTime:histogram:sumweights 0
scalar ObstacleTest.host[1].wlan[0].mac.dcf.channelAccess.pendingQueue flowQueueingTime:histogram:mean -nan
scalar ObstacleTest.host[1].wlan[0].mac.dcf.channelAccess.pendingQueue flowQueueingTime:histogram:stddev nan
scalar ObstacleTest.host[1].wlan[0].mac.dcf.channelAccess.pendingQueue flowQueueingTime:histogram:min nan
scalar ObstacleTest.host[1].wlan[0].mac.dcf.channelAccess.pendingQueue flowQueueingTime:histogram:max nan
scalar ObstacleTest.host[1].wlan[0].mac.dcf.channelAccess.pendingQueue flowQueueingTime:histogram:numbins 1
scalar ObstacleTest.host[1].wlan[0].mac.dcf.channelAccess.pendingQueue flowQueueingTime:histogram:rangemin 0
scalar ObstacleTest.host[1].wlan[0].mac.dcf.channelAccess.pendingQueue flowQueueingTime:histogram:rangemax 1
scalar ObstacleTest.host[1].wlan[0].mac.dcf.channelAccess.pendingQueue flowQueueingTime:histogram:underflows 0
scalar ObstacleTest.host[1].wlan[0].mac.dcf.channelAccess.pendingQueue flowQueueingTime:histogram:overflows 0
scalar ObstacleTest.host[1].wlan[0].mac.dcf.channelAccess.pendingQueue incomingPacketLengths:histogram:count 102
scalar ObstacleTest.host[1].wlan[0].mac.dcf.channelAccess.pendingQueue incomingPacketLengths:histogram:sumweights 102
scalar ObstacleTest.host[1].wlan[0].mac.dcf.channelAccess.pendingQueue incomingPacketLengths:histogram:mean 955.60784313725
scalar ObstacleTest.host[1].wlan[0].mac.dcf.channelAccess.pendingQueue incomingPacketLengths:histogram:stddev 44.358609925355
scalar ObstacleTest.host[1].wlan[0].mac.dcf.channelAccess.pendingQueue incomingPacketLengths:histogram:min 512
scalar ObstacleTest.host[1].wlan[0].mac.dcf.channelAccess.pendingQueue incomingPacketLengths:histogram:max 960
scalar ObstacleTest.host[1].wlan[0].mac.dcf.channelAccess.pendingQueue incomingPacketLengths:histogram:numbins 68
scalar ObstacleTest.host[1].wlan[0].mac.dcf.channelAccess.pendingQueue incomingPacketLengths:histogram:rangemin 400
scalar ObstacleTest.host[1].wlan[0].mac.dcf.channelAccess.pendingQueue incomingPacketLengths:histogram:rangemax 1080
scalar ObstacleTest.host[1].wlan[0].mac.dcf.channelAccess.pendingQueue incomingPacketLengths:histogram:underflows 0
scalar ObstacleTest.host[1].wlan[0].mac.dcf.channelAccess.pendingQueue incomingPacketLengths:histogram:overflows 0
scalar ObstacleTest.host[1].wlan[0].mac.dcf.channelAccess.inProgressFrames queueingTime:histogram:count 101
scalar ObstacleTest.host[1].wlan[0].mac.dcf.channelAccess.inProgressFrames queueingTime:histogram:sumweights 101
scalar ObstacleTest.host[1].wlan[0].mac.dcf.channelAccess.inProgressFrames queueingTime:histogram:mean 0.03490114476496
scalar ObstacleTest.host[1].wlan[0].mac.dcf.channelAccess.inProgressFrames queueingTime:histogram:stddev 0.032620978112678
scalar ObstacleTest.host[1].wlan[0].mac.dcf.channelAccess.inProgressFrames queueingTime:histogram:min 5e-05
scalar ObstacleTest.host[1].wlan[0].mac.dcf.channelAccess.inProgressFrames queueingTime:histogram:max 0.092369
scalar ObstacleTest.host[1].wlan[0].mac.dcf.channelAccess.inProgressFrames queueingTime:histogram:numbins 58
scalar ObstacleTest.host[1].wlan[0].mac.dcf.channelAccess.inProgressFrames queueingTime:histogram:rangemin 0
scalar ObstacleTest.host[1].wlan[0].mac.dcf.channelAccess.inProgressFrames queueingTime:histogram:rangemax 0.116
scalar ObstacleTest.host[1].wlan[0].mac.dcf.channelAccess.inProgressFrames queueingTime:histogram:underflows 0
scalar ObstacleTest.host[1].wlan[0].mac.dcf.channelAccess.inProgressFrames queueingTime:histogram:overflows 0
scalar ObstacleTest.host[1].wlan[0].mac.dcf frameSequenceDuration:histogram:count 449
scalar ObstacleTest.host[1].wlan[0].mac.dcf frameSequenceDuration:histogram:sumweights 449
scalar ObstacleTest.host[1].wlan[0].mac.dcf frameSequenceDuration:histogram:mean 0.00012392788699555
scalar ObstacleTest.host[1].wlan[0].mac.dcf frameSequenceDuration:histogram:stddev 4.4957201104242e-06
scalar ObstacleTest.host[1].wlan[0].mac.dcf frameSequenceDuration:histogram:min 5e-05
scalar ObstacleTest.host[1].wlan[0].mac.dcf frameSequenceDuration:histogram:max 0.000125
scalar ObstacleTest.host[1].wlan[0].mac.dcf frameSequenceDuration:histogram:numbins 57
scalar ObstacleTest.host[1].wlan[0].mac.dcf frameSequenceDuration:histogram:rangemin 3e-05
scalar ObstacleTest.host[1].wlan[0].mac.dcf frameSequenceDuration:histogram:rangemax 0.000144
scalar ObstacleTest.host[1].wlan[0].mac.dcf frameSequenceDuration:histogram:underflows 0
scalar ObstacleTest.host[1].wlan[0].mac.dcf frameSequenceDuration:histogram:overflows 0
scalar ObstacleTest.host[1].wlan[0].mac.dcf frameSequenceNumPackets:histogram:count 449
scalar ObstacleTest.host[1].wlan[0].mac.dcf frameSequenceNumPackets:histogram:sumweights 449
scalar ObstacleTest.host[1].wlan[0].mac.dcf frameSequenceNumPackets:histogram:mean 1.9977728285078
scalar ObstacleTest.host[1].wlan[0].mac.dcf frameSequenceNumPackets:histogram:stddev 0.0471929178183
scalar ObstacleTest.host[1].wlan[0].mac.dcf frameSequenceNumPackets:histogram:min 1
scalar ObstacleTest.host[1].wlan[0].mac.dcf frameSequenceNumPackets:histogram:max 2
scalar ObstacleTest.host[1].wlan[0].mac.dcf frameSequenceNumPackets:histogram:numbins 3
scalar ObstacleTest.host[1].wlan[0].mac.dcf frameSequenceNumPackets:histogram:rangemin 0
scalar ObstacleTest.host[1].wlan[0].mac.dcf frameSequenceNumPackets:histogram:rangemax 3
scalar ObstacleTest.host[1].wlan[0].mac.dcf frameSequenceNumPackets:histogram:underflows 0
scalar ObstacleTest.host[1].wlan[0].mac.dcf frameSequenceNumPackets:histogram:overflows 0
scalar ObstacleTest.host[1].wlan[0].radio radioChannel:histogram:count 1
scalar ObstacleTest.host[1].wlan[0].radio radioChannel:histogram:sumweights 1
scalar ObstacleTest.host[1].wlan[0].radio radioChannel:histogram:mean 0
scalar ObstacleTest.host[1].wlan[0].radio radioChannel:histogram:stddev nan
scalar ObstacleTest.host[1].wlan[0].radio radioChannel:histogram:min 0
scalar ObstacleTest.host[1].wlan[0].radio radioChannel:histogram:max 0
scalar ObstacleTest.host[1].wlan[0].radio radioChannel:histogram:numbins 50
scalar ObstacleTest.host[1].wlan[0].radio radioChannel:histogram:rangemin -0.5
scalar ObstacleTest.host[1].wlan[0].radio radioChannel:histogram:rangemax 0.5
scalar ObstacleTest.host[1].wlan[0].radio radioChannel:histogram:underflows 0
scalar ObstacleTest.host[1].wlan[0].radio radioChannel:histogram:overflows 0
scalar ObstacleTest.host[1].wlan[0].radio minSnir:histogram:count 85
scalar ObstacleTest.host[1].wlan[0].radio minSnir:histogram:sumweights 85
scalar ObstacleTest.host[1].wlan[0].radio minSnir:histogram:mean 2028.6831272274
scalar ObstacleTest.host[1].wlan[0].radio minSnir:histogram:stddev 1478.6037704698
scalar ObstacleTest.host[1].wlan[0].radio minSnir:histogram:min 329.62984381583
scalar ObstacleTest.host[1].wlan[0].radio minSnir:histogram:max 4888.7116231789
scalar ObstacleTest.host[1].wlan[0].radio minSnir:histogram:numbins 61
scalar ObstacleTest.host[1].wlan[0].radio minSnir:histogram:rangemin 0
scalar ObstacleTest.host[1].wlan[0].radio minSnir:histogram:rangemax 6100
scalar ObstacleTest.host[1].wlan[0].radio minSnir:histogram:underflows 0
scalar ObstacleTest.host[1].wlan[0].radio minSnir:histogram:overflows 0
scalar ObstacleTest.host[1].wlan[0].radio packetErrorRate:histogram:count 85
scalar ObstacleTest.host[1].wlan[0].radio packetErrorRate:histogram:sumweights 85
scalar ObstacleTest.host[1].wlan[0].radio packetErrorRate:histogram:mean 0
scalar ObstacleTest.host[1].wlan[0].radio packetErrorRate:histogram:stddev 0
scalar ObstacleTest.host[1].wlan[0].radio packetErrorRate:histogram:min 0
scalar ObstacleTest.host[1].wlan[0].radio packetErrorRate:histogram:max 0
scalar ObstacleTest.host[1].wlan[0].radio packetErrorRate:histogram:numbins 50
scalar ObstacleTest.host[1].wlan[0].radio packetErrorRate:histogram:rangemin -0.5
scalar ObstacleTest.host[1].wlan[0].radio packetErrorRate:histogram:rangemax 0.5
scalar ObstacleTest.host[1].wlan[0].radio packetErrorRate:histogram:underflows 0
scalar ObstacleTest.host[1].wlan[0].radio packetErrorRate:histogram:overflows 0
scalar ObstacleTest.host[1].wlan[0].radio bitErrorRate:histogram:count 0
scalar ObstacleTest.host[1].wlan[0].radio bitErrorRate:histogram:sumweights 0
scalar ObstacleTest.host[1].wlan[0].radio bitErrorRate:histogram:mean -nan
scalar ObstacleTest.host[1].wlan[0].radio bitErrorRate:histogram:stddev nan
scalar ObstacleTest.host[1].wlan[0].radio bitErrorRate:histogram:min nan
scalar ObstacleTest.host[1].wlan[0].radio bitErrorRate:histogram:max nan
scalar ObstacleTest.host[1].wlan[0].radio bitErrorRate:histogram:numbins 1
scalar ObstacleTest.host[1].wlan[0].radio bitErrorRate:histogram:rangemin 0
scalar ObstacleTest.host[1].wlan[0].radio bitErrorRate:histogram:rangemax 1
scalar ObstacleTest.host[1].wlan[0].radio bitErrorRate:histogram:underflows 0
scalar ObstacleTest.host[1].wlan[0].radio bitErrorRate:histogram:overflows 0
scalar ObstacleTest.host[1].wlan[0].radio symbolErrorRate:histogram:count 0
scalar ObstacleTest.host[1].wlan[0].radio symbolErrorRate:histogram:sumweights 0
scalar ObstacleTest.host[1].wlan[0].radio symbolErrorRate:histogram:mean -nan
scalar ObstacleTest.host[1].wlan[0].radio symbolErrorRate:histogram:stddev nan
scalar ObstacleTest.host[1].wlan[0].radio symbolErrorRate:histogram:min nan
scalar ObstacleTest.host[1].wlan[0].radio symbolErrorRate:histogram:max nan
scalar ObstacleTest.host[1].wlan[0].radio symbolErrorRate:histogram:numbins 1
scalar ObstacleTest.host[1].wlan[0].radio symbolErrorRate:histogram:rangemin 0
scalar ObstacleTest.host[1].wlan[0].radio symbolErrorRate:histogram:rangemax 1
scalar ObstacleTest.host[1].wlan[0].radio symbolErrorRate:histogram:underflows 0
scalar ObstacleTest.host[1].wlan[0].radio symbolErrorRate:histogram:overflows 0
scalar ObstacleTest.host[1].app[0] rtt:histogram:count 42
scalar ObstacleTest.host[1].app[0] rtt:histogram:sumweights 42
scalar ObstacleTest.host[1].app[0] rtt:histogram:mean 0.00052949993259524
scalar ObstacleTest.host[1].app[0] rtt:histogram:stddev 0.00024247396660606
scalar ObstacleTest.host[1].app[0] rtt:histogram:min 0.000234801193
scalar ObstacleTest.host[1].app[0] rtt:histogram:max 0.001490751379
scalar ObstacleTest.host[1].app[0] rtt:histogram:numbins 91
scalar ObstacleTest.host[1].app[0] rtt:histogram:rangemin 0
scalar ObstacleTest.host[1].app[0] rtt:histogram:rangemax 0.00182
scalar ObstacleTest.host[1].app[0] rtt:histogram:underflows 0
scalar ObstacleTest.host[1].app[0] rtt:histogram:overflows 0
statistic ObstacleTest.host[0].wlan[0].mac.dcf.channelAccess.pendingQueue queueingTime:histogram
field count 43
field mean 0.00035809302325581
field stddev 0.00019126742858072
field min 9.4e-05
field max 0.000714
field sum 0.015398
field sqrsum 7.050412e-06
bin	-inf	0
bin	0	0
bin	1e-05	0
bin	2e-05	0
bin	3e-05	0
bin	4e-05	0
bin	5e-05	0
bin	6e-05	0
bin	7e-05	0
bin	8e-05	0
bin	9e-05	4
bin	0.0001	0
bin	0.00011	3
bin	0.00012	0
bin	0.00013	0
bin	0.00014	0
bin	0.00015	1
bin	0.00016	0
bin	0.00017	2
bin	0.00018	0
bin	0.00019	2
bin	0.0002	0
bin	0.00021	0
bin	0.00022	0
bin	0.00023	4
bin	0.00024	0
bin	0.00025	2
bin	0.00026	0
bin	0.00027	0
bin	0.00028	0
bin	0.00029	2
bin	0.0003	0
bin	0.00031	0
bin	0.00032	0
bin	0.00033	1
bin	0.00034	1
bin	0.00035	0
bin	0.00036	0
bin	0.00037	1
bin	0.00038	0
bin	0.00039	1
bin	0.0004	0
bin	0.00041	1
bin	0.00042	0
bin	0.00043	3
bin	0.00044	0
bin	0.00045	2
bin	0.00046	0
bin	0.00047	2
bin	0.00048	0
bin	0.00049	1
bin	0.0005	0
bin	0.00051	0
bin	0.00052	0
bin	0.00053	0
bin	0.00054	0
bin	0.00055	2
bin	0.00056	0
bin	0.00057	1
bin	0.00058	0
bin	0.00059	2
bin	0.0006	0
bin	0.00061	0
bin	0.00062	0
bin	0.00063	1
bin	0.00064	0
bin	0.00065	1
bin	0.00066	0
bin	0.00067	1
bin	0.00068	0
bin	0.00069	1
bin	0.0007	0
bin	0.00071	1
bin	0.00072	0
bin	0.00073	0
bin	0.00074	0
bin	0.00075	0
bin	0.00076	0
bin	0.00077	0
bin	0.00078	0
bin	0.00079	0
bin	0.0008	0
bin	0.00081	0
bin	0.00082	0
bin	0.00083	0
bin	0.00084	0
bin	0.00085	0
bin	0.00086	0
bin	0.00087	0
statistic ObstacleTest.host[0].wlan[0].mac.dcf.channelAccess.pendingQueue outgoingPacketLengths:histogram
field count 43
field mean 949.58139534884
field stddev 68.319359509007
field min 512
field max 960
field sum 40832
field sqrsum 38969344
bin	-inf	0
bin	400	0
bin	410	0
bin	420	0
bin	430	0
bin	440	0
bin	450	0
bin	460	0
bin	470	0
bin	480	0
bin	490	0
bin	500	0
bin	510	1
bin	520	0
bin	530	0
bin	540	0
bin	550	0
bin	560	0
bin	570	0
bin	580	0
bin	590	0
bin	600	0
bin	610	0
bin	620	0
bin	630	0
bin	640	0
bin	650	0
bin	660	0
bin	670	0
bin	680	0
bin	690	0
bin	700	0
bin	710	0
bin	720	0
bin	730	0
bin	740	0
bin	750	0
bin	760	0
bin	770	0
bin	780	0
bin	790	0
bin	800	0
bin	810	0
bin	820	0
bin	830	0
bin	840	0
bin	850	0
bin	860	0
bin	870	0
bin	880	0
bin	890	0
bin	900	0
bin	910	0
bin	920	0
bin	930	0
bin	940	0
bin	950	0
bin	960	42
bin	970	0
bin	980	0
bin	990	0
bin	1000	0
bin	1010	0
bin	1020	0
bin	1030	0
bin	1040	0
bin	1050	0
bin	1060	0
bin	1070	0
bin	1080	0
statistic ObstacleTest.host[0].wlan[0].mac.dcf.channelAccess.pendingQueue flowQueueingTime:histogram
field count 0
field mean -nan
field stddev nan
field min nan
field max nan
field sum 0
field sqrsum 0
bin	-inf	0
bin	0	0
bin	1	0
statistic ObstacleTest.host[0].wlan[0].mac.dcf.channelAccess.pendingQueue incomingPacketLengths:histogram
field count 43
field mean 949.58139534884
field stddev 68.319359509007
field min 512
field max 960
field sum 40832
field sqrsum 38969344
bin	-inf	0
bin	400	0
bin	410	0
bin	420	0
bin	430	0
bin	440	0
bin	450	0
bin	460	0
bin	470	0
bin	480	0
bin	490	0
bin	500	0
bin	510	1
bin	520	0
bin	530	0
bin	540	0
bin	550	0
bin	560	0
bin	570	0
bin	580	0
bin	590	0
bin	600	0
bin	610	0
bin	620	0
bin	630	0
bin	640	0
bin	650	0
bin	660	0
bin	670	0
bin	680	0
bin	690	0
bin	700	0
bin	710	0
bin	720	0
bin	730	0
bin	740	0
bin	750	0
bin	760	0
bin	770	0
bin	780	0
bin	790	0
bin	800	0
bin	810	0
bin	820	0
bin	830	0
bin	840	0
bin	850	0
bin	860	0
bin	870	0
bin	880	0
bin	890	0
bin	900	0
bin	910	0
bin	920	0
bin	930	0
bin	940	0
bin	950	0
bin	960	42
bin	970	0
bin	980	0
bin	990	0
bin	1000	0
bin	1010	0
bin	1020	0
bin	1030	0
bin	1040	0
bin	1050	0
bin	1060	0
bin	1070	0
bin	1080	0
statistic ObstacleTest.host[0].wlan[0].mac.dcf.channelAccess.inProgressFrames queueingTime:histogram
field count 43
field mean 0.00011486040548837
field stddev 3.0958702169181e-06
field min 9.5375705e-05
field max 0.000116569893
field sum 0.004938997436
field sqrsum 5.6769779352579e-07
bin	-inf	0
bin	9e-05	0
bin	9.05e-05	0
bin	9.1e-05	0
bin	9.15e-05	0
bin	9.2e-05	0
bin	9.25e-05	0
bin	9.3e-05	0
bin	9.35e-05	0
bin	9.4e-05	0
bin	9.45e-05	0
bin	9.5e-05	1
bin	9.55e-05	0
bin	9.6e-05	0
bin	9.65e-05	0
bin	9.7e-05	0
bin	9.75e-05	0
bin	9.8e-05	0
bin	9.85e-05	0
bin	9.9e-05	0
bin	9.95e-05	0
bin	0.0001	0
bin	0.0001005	0
bin	0.000101	0
bin	0.0001015	0
bin	0.000102	0
bin	0.0001025	0
bin	0.000103	0
bin	0.0001035	0
bin	0.000104	0
bin	0.0001045	0
bin	0.000105	0
bin	0.0001055	0
bin	0.000106	0
bin	0.0001065	0
bin	0.000107	0
bin	0.0001075	0
bin	0.000108	0
bin	0.0001085	0
bin	0.000109	0
bin	0.0001095	0
bin	0.00011	0
bin	0.0001105	0
bin	0.000111	0
bin	0.0001115	0
bin	0.000112	0
bin	0.0001125	0
bin	0.000113	0
bin	0.0001135	0
bin	0.000114	0
bin	0.0001145	16
bin	0.000115	12
bin	0.0001155	7
bin	0.000116	6
bin	0.0001165	1
bin	0.000117	0
bin	0.0001175	0
bin	0.000118	0
bin	0.0001185	0
bin	0.000119	0
bin	0.0001195	0
bin	0.00012	0
bin	0.0001205	0
bin	0.000121	0
bin	0.0001215	0
bin	0.000122	0
statistic ObstacleTest.host[0].wlan[0].mac.dcf frameSequenceDuration:histogram
field count 43
field mean 0.00011486040548837
field stddev 3.0958702169181e-06
field min 9.5375705e-05
field max 0.000116569893
field sum 0.004938997436
field sqrsum 5.6769779352579e-07
bin	-inf	0
bin	9e-05	0
bin	9.05e-05	0
bin	9.1e-05	0
bin	9.15e-05	0
bin	9.2e-05	0
bin	9.25e-05	0
bin	9.3e-05	0
bin	9.35e-05	0
bin	9.4e-05	0
bin	9.45e-05	0
bin	9.5e-05	1
bin	9.55e-05	0
bin	9.6e-05	0
bin	9.65e-05	0
bin	9.7e-05	0
bin	9.75e-05	0
bin	9.8e-05	0
bin	9.85e-05	0
bin	9.9e-05	0
bin	9.95e-05	0
bin	0.0001	0
bin	0.0001005	0
bin	0.000101	0
bin	0.0001015	0
bin	0.000102	0
bin	0.0001025	0
bin	0.000103	0
bin	0.0001035	0
bin	0.000104	0
bin	0.0001045	0
bin	0.000105	0
bin	0.0001055	0
bin	0.000106	0
bin	0.0001065	0
bin	0.000107	0
bin	0.0001075	0
bin	0.000108	0
bin	0.0001085	0
bin	0.000109	0
bin	0.0001095	0
bin	0.00011	0
bin	0.0001105	0
bin	0.000111	0
bin	0.0001115	0
bin	0.000112	0
bin	0.0001125	0
bin	0.000113	0
bin	0.0001135	0
bin	0.000114	0
bin	0.0001145	16
bin	0.000115	12
bin	0.0001155	7
bin	0.000116	6
bin	0.0001165	1
bin	0.000117	0
bin	0.0001175	0
bin	0.000118	0
bin	0.0001185	0
bin	0.000119	0
bin	0.0001195	0
bin	0.00012	0
bin	0.0001205	0
bin	0.000121	0
bin	0.0001215	0
bin	0.000122	0
statistic ObstacleTest.host[0].wlan[0].mac.dcf frameSequenceNumPackets:histogram
field count 43
field mean 2
field stddev 0
field min 2
field max 2
field sum 86
field sqrsum 172
bin	-inf	0
bin	1	0
bin	2	43
bin	3	0
statistic ObstacleTest.host[0].wlan[0].radio radioChannel:histogram
field count 1
field mean 0
field stddev nan
field min 0
field max 0
field sum 0
field sqrsum 0
bin	-inf	0
bin	-0.5	0
bin	-0.48	0
bin	-0.46	0
bin	-0.44	0
bin	-0.42	0
bin	-0.4	0
bin	-0.38	0
bin	-0.36	0
bin	-0.34	0
bin	-0.32	0
bin	-0.3	0
bin	-0.28	0
bin	-0.26	0
bin	-0.24	0
bin	-0.22	0
bin	-0.2	0
bin	-0.18	0
bin	-0.16	0
bin	-0.14	0
bin	-0.12	0
bin	-0.1	0
bin	-0.08	0
bin	-0.06	0
bin	-0.04	0
bin	-0.02	0
bin	0	1
bin	0.02	0
bin	0.04	0
bin	0.06	0
bin	0.08	0
bin	0.1	0
bin	0.12	0
bin	0.14	0
bin	0.16	0
bin	0.18	0
bin	0.2	0
bin	0.22	0
bin	0.24	0
bin	0.26	0
bin	0.28	0
bin	0.3	0
bin	0.32	0
bin	0.34	0
bin	0.36	0
bin	0.38	0
bin	0.4	0
bin	0.42	0
bin	0.44	0
bin	0.46	0
bin	0.48	0
bin	0.5	0
statistic ObstacleTest.host[0].wlan[0].radio minSnir:histogram
field count 86
field mean 2018.4686195766
field stddev 1472.9294643426
field min 329.62815946698
field max 4888.7141812149
field sum 173588.30128359
field sqrsum 534791841.45547
bin	-inf	0
bin	0	0
bin	100	0
bin	200	0
bin	300	6
bin	400	6
bin	500	6
bin	600	2
bin	700	4
bin	800	2
bin	900	2
bin	1000	2
bin	1100	6
bin	1200	2
bin	1300	2
bin	1400	2
bin	1500	2
bin	1600	2
bin	1700	2
bin	1800	2
bin	1900	2
bin	2000	0
bin	2100	2
bin	2200	2
bin	2300	0
bin	2400	2
bin	2500	2
bin	2600	0
bin	2700	0
bin	2800	2
bin	2900	2
bin	3000	0
bin	3100	0
bin	3200	2
bin	3300	2
bin	3400	0
bin	3500	0
bin	3600	2
bin	3700	0
bin	3800	2
bin	3900	0
bin	4000	0
bin	4100	2
bin	4200	2
bin	4300	0
bin	4400	2
bin	4500	2
bin	4600	0
bin	4700	2
bin	4800	4
bin	4900	0
bin	5000	0
bin	5100	0
bin	5200	0
bin	5300	0
bin	5400	0
bin	5500	0
bin	5600	0
bin	5700	0
bin	5800	0
bin	5900	0
bin	6000	0
bin	6100	0
statistic ObstacleTest.host[0].wlan[0].radio packetErrorRate:histogram
field count 86
field mean 0
field stddev 0
field min 0
field max 0
field sum 0
field sqrsum 0
bin	-inf	0
bin	-0.5	0
bin	-0.48	0
bin	-0.46	0
bin	-0.44	0
bin	-0.42	0
bin	-0.4	0
bin	-0.38	0
bin	-0.36	0
bin	-0.34	0
bin	-0.32	0
bin	-0.3	0
bin	-0.28	0
bin	-0.26	0
bin	-0.24	0
bin	-0.22	0
bin	-0.2	0
bin	-0.18	0
bin	-0.16	0
bin	-0.14	0
bin	-0.12	0
bin	-0.1	0
bin	-0.08	0
bin	-0.06	0
bin	-0.04	0
bin	-0.02	0
bin	0	86
bin	0.02	0
bin	0.04	0
bin	0.06	0
bin	0.08	0
bin	0.1	0
bin	0.12	0
bin	0.14	0
bin	0.16	0
bin	0.18	0
bin	0.2	0
bin	0.22	0
bin	0.24	0
bin	0.26	0
bin	0.28	0
bin	0.3	0
bin	0.32	0
bin	0.34	0
bin	0.36	0
bin	0.38	0
bin	0.4	0
bin	0.42	0
bin	0.44	0
bin	0.46	0
bin	0.48	0
bin	0.5	0
statistic ObstacleTest.host[0].wlan[0].radio bitErrorRate:histogram
field count 0
field mean -nan
field stddev nan
field min nan
field max nan
field sum 0
field sqrsum 0
bin	-inf	0
bin	0	0
bin	1	0
statistic ObstacleTest.host[0].wlan[0].radio symbolErrorRate:histogram
field count 0
field mean -nan
field stddev nan
field min nan
field max nan
field sum 0
field sqrsum 0
bin	-inf	0
bin	0	0
bin	1	0
statistic ObstacleTest.host[1].wlan[0].mac.dcf.channelAccess.pendingQueue queueingTime:histogram
field count 102
field mean 7.8823529411765e-06
field stddev 5.8187013984128e-05
field min 0
field max 0.000514
field sum 0.000804
field sqrsum 3.48296e-07
bin	-inf	0
bin	0	100
bin	1e-05	0
bin	2e-05	0
bin	3e-05	0
bin	4e-05	0
bin	5e-05	0
bin	6e-05	0
bin	7e-05	0
bin	8e-05	0
bin	9e-05	0
bin	0.0001	0
bin	0.00011	0
bin	0.00012	0
bin	0.00013	0
bin	0.00014	0
bin	0.00015	0
bin	0.00016	0
bin	0.00017	0
bin	0.00018	0
bin	0.00019	0
bin	0.0002	0
bin	0.00021	0
bin	0.00022	0
bin	0.00023	0
bin	0.00024	0
bin	0.00025	0
bin	0.00026	0
bin	0.00027	0
bin	0.00028	0
bin	0.00029	1
bin	0.0003	0
bin	0.00031	0
bin	0.00032	0
bin	0.00033	0
bin	0.00034	0
bin	0.00035	0
bin	0.00036	0
bin	0.00037	0
bin	0.00038	0
bin	0.00039	0
bin	0.0004	0
bin	0.00041	0
bin	0.00042	0
bin	0.00043	0
bin	0.00044	0
bin	0.00045	0
bin	0.00046	0
bin	0.00047	0
bin	0.00048	0
bin	0.00049	0
bin	0.0005	0
bin	0.00051	1
bin	0.00052	0
bin	0.00053	0
bin	0.00054	0
bin	0.00055	0
bin	0.00056	0
bin	0.00057	0
bin	0.00058	0
bin	0.00059	0
bin	0.0006	0
bin	0.00061	0
bin	0.00062	0
bin	0.00063	0
bin	0.00064	0
bin	0.00065	0
statistic ObstacleTest.host[1].wlan[0].mac.dcf.channelAccess.pendingQueue outgoingPacketLengths:histogram
field count 102
field mean 955.60784313725
field stddev 44.358609925355
field min 512
field max 960
field sum 97472
field sqrsum 93343744
bin	-inf	0
bin	400	0
bin	410	0
bin	420	0
bin	430	0
bin	440	0
bin	450	0
bin	460	0
bin	470	0
bin	480	0
bin	490	0
bin	500	0
bin	510	1
bin	520	0
bin	530	0
bin	540	0
bin	550	0
bin	560	0
bin	570	0
bin	580	0
bin	590	0
bin	600	0
bin	610	0
bin	620	0
bin	630	0
bin	640	0
bin	650	0
bin	660	0
bin	670	0
bin	680	0
bin	690	0
bin	700	0
bin	710	0
bin	720	0
bin	730	0
bin	740	0
bin	750	0
bin	760	0
bin	770	0
bin	780	0
bin	790	0
bin	800	0
bin	810	0
bin	820	0
bin	830	0
bin	840	0
bin	850	0
bin	860	0
bin	870	0
bin	880	0
bin	890	0
bin	900	0
bin	910	0
bin	920	0
bin	930	0
bin	940	0
bin	950	0
bin	960	101
bin	970	0
bin	980	0
bin	990	0
bin	1000	0
bin	1010	0
bin	1020	0
bin	1030	0
bin	1040	0
bin	1050	0
bin	1060	0
bin	1070	0
bin	1080	0
statistic ObstacleTest.host[1].wlan[0].mac.dcf.channelAccess.pendingQueue flowQueueingTime:histogram
field count 0
field mean -nan
field stddev nan
field min nan
field max nan
field sum 0
field sqrsum 0
bin	-inf	0
bin	0	0
bin	1	0
statistic ObstacleTest.host[1].wlan[0].mac.dcf.channelAccess.pendingQueue incomingPacketLengths:histogram
field count 102
field mean 955.60784313725
field stddev 44.358609925355
field min 512
field max 960
field sum 97472
field sqrsum 93343744
bin	-inf	0
bin	400	0
bin	410	0
bin	420	0
bin	430	0
bin	440	0
bin	450	0
bin	460	0
bin	470	0
bin	480	0
bin	490	0
bin	500	0
bin	510	1
bin	520	0
bin	530	0
bin	540	0
bin	550	0
bin	560	0
bin	570	0
bin	580	0
bin	590	0
bin	600	0
bin	610	0
bin	620	0
bin	630	0
bin	640	0
bin	650	0
bin	660	0
bin	670	0
bin	680	0
bin	690	0
bin	700	0
bin	710	0
bin	720	0
bin	730	0
bin	740	0
bin	750	0
bin	760	0
bin	770	0
bin	780	0
bin	790	0
bin	800	0
bin	810	0
bin	820	0
bin	830	0
bin	840	0
bin	850	0
bin	860	0
bin	870	0
bin	880	0
bin	890	0
bin	900	0
bin	910	0
bin	920	0
bin	930	0
bin	940	0
bin	950	0
bin	960	101
bin	970	0
bin	980	0
bin	990	0
bin	1000	0
bin	1010	0
bin	1020	0
bin	1030	0
bin	1040	0
bin	1050	0
bin	1060	0
bin	1070	0
bin	1080	0
statistic ObstacleTest.host[1].wlan[0].mac.dcf.channelAccess.inProgressFrames queueingTime:histogram
field count 101
field mean 0.03490114476496
field stddev 0.032620978112678
field min 5e-05
field max 0.092369
field sum 3.525015621261
field sqrsum 0.22943990179916
bin	-inf	0
bin	0	43
bin	0.002	0
bin	0.004	0
bin	0.006	0
bin	0.008	0
bin	0.01	0
bin	0.012	0
bin	0.014	0
bin	0.016	0
bin	0.018	0
bin	0.02	0
bin	0.022	0
bin	0.024	1
bin	0.026	0
bin	0.028	0
bin	0.03	2
bin	0.032	1
bin	0.034	1
bin	0.036	1
bin	0.038	0
bin	0.04	0
bin	0.042	2
bin	0.044	2
bin	0.046	3
bin	0.048	4
bin	0.05	3
bin	0.052	6
bin	0.054	2
bin	0.056	1
bin	0.058	2
bin	0.06	1
bin	0.062	1
bin	0.064	3
bin	0.066	1
bin	0.068	1
bin	0.07	1
bin	0.072	3
bin	0.074	2
bin	0.076	2
bin	0.078	2
bin	0.08	5
bin	0.082	2
bin	0.084	0
bin	0.086	0
bin	0.088	1
bin	0.09	1
bin	0.092	1
bin	0.094	0
bin	0.096	0
bin	0.098	0
bin	0.1	0
bin	0.102	0
bin	0.104	0
bin	0.106	0
bin	0.108	0
bin	0.11	0
bin	0.112	0
bin	0.114	0
bin	0.116	0
statistic ObstacleTest.host[1].wlan[0].mac.dcf frameSequenceDuration:histogram
field count 449
field mean 0.00012392788699555
field stddev 4.4957201104242e-06
field min 5e-05
field max 0.000125
field sum 0.055643621261
field sqrsum 6.9048511593476e-06
bin	-inf	0
bin	3e-05	0
bin	3.2e-05	0
bin	3.4e-05	0
bin	3.6e-05	0
bin	3.8e-05	0
bin	4e-05	0
bin	4.2e-05	0
bin	4.4e-05	0
bin	4.6e-05	0
bin	4.8e-05	1
bin	5e-05	0
bin	5.2e-05	0
bin	5.4e-05	0
bin	5.6e-05	0
bin	5.8e-05	0
bin	6e-05	0
bin	6.2e-05	0
bin	6.4e-05	0
bin	6.6e-05	0
bin	6.8e-05	0
bin	7e-05	0
bin	7.2e-05	0
bin	7.4e-05	0
bin	7.6e-05	0
bin	7.8e-05	0
bin	8e-05	0
bin	8.2e-05	0
bin	8.4e-05	0
bin	8.6e-05	0
bin	8.8e-05	0
bin	9e-05	0
bin	9.2e-05	0
bin	9.4e-05	0
bin	9.6e-05	0
bin	9.8e-05	0
bin	0.0001	0
bin	0.000102	0
bin	0.000104	0
bin	0.000106	0
bin	0.000108	0
bin	0.00011	0
bin	0.000112	0
bin	0.000114	35
bin	0.000116	7
bin	0.000118	0
bin	0.00012	0
bin	0.000122	0
bin	0.000124	406
bin	0.000126	0
bin	0.000128	0
bin	0.00013	0
bin	0.000132	0
bin	0.000134	0
bin	0.000136	0
bin	0.000138	0
bin	0.00014	0
bin	0.000142	0
bin	0.000144	0
statistic ObstacleTest.host[1].wlan[0].mac.dcf frameSequenceNumPackets:histogram
field count 449
field mean 1.9977728285078
field stddev 0.0471929178183
field min 1
field max 2
field sum 897
field sqrsum 1793
bin	-inf	0
bin	0	0
bin	1	1
bin	2	448
bin	3	0
statistic ObstacleTest.host[1].wlan[0].radio radioChannel:histogram
field count 1
field mean 0
field stddev nan
field min 0
field max 0
field sum 0
field sqrsum 0
bin	-inf	0
bin	-0.5	0
bin	-0.48	0
bin	-0.46	0
bin	-0.44	0
bin	-0.42	0
bin	-0.4	0
bin	-0.38	0
bin	-0.36	0
bin	-0.34	0
bin	-0.32	0
bin	-0.3	0
bin	-0.28	0
bin	-0.26	0
bin	-0.24	0
bin	-0.22	0
bin	-0.2	0
bin	-0.18	0
bin	-0.16	0
bin	-0.14	0
bin	-0.12	0
bin	-0.1	0
bin	-0.08	0
bin	-0.06	0
bin	-0.04	0
bin	-0.02	0
bin	0	1
bin	0.02	0
bin	0.04	0
bin	0.06	0
bin	0.08	0
bin	0.1	0
bin	0.12	0
bin	0.14	0
bin	0.16	0
bin	0.18	0
bin	0.2	0
bin	0.22	0
bin	0.24	0
bin	0.26	0
bin	0.28	0
bin	0.3	0
bin	0.32	0
bin	0.34	0
bin	0.36	0
bin	0.38	0
bin	0.4	0
bin	0.42	0
bin	0.44	0
bin	0.46	0
bin	0.48	0
bin	0.5	0
statistic ObstacleTest.host[1].wlan[0].radio minSnir:histogram
field count 85
field mean 2028.6831272274
field stddev 1478.6037704698
field min 329.62984381583
field max 4888.7116231789
field sum 172438.06581433
field sqrsum 533468799.85324
bin	-inf	0
bin	0	0
bin	100	0
bin	200	0
bin	300	6
bin	400	6
bin	500	6
bin	600	2
bin	700	4
bin	800	2
bin	900	2
bin	1000	2
bin	1100	5
bin	1200	2
bin	1300	2
bin	1400	2
bin	1500	2
bin	1600	2
bin	1700	2
bin	1800	2
bin	1900	2
bin	2000	0
bin	2100	2
bin	2200	2
bin	2300	0
bin	2400	2
bin	2500	2
bin	2600	0
bin	2700	0
bin	2800	2
bin	2900	2
bin	3000	0
bin	3100	0
bin	3200	2
bin	3300	2
bin	3400	0
bin	3500	0
bin	3600	2
bin	3700	0
bin	3800	2
bin	3900	0
bin	4000	0
bin	4100	2
bin	4200	2
bin	4300	0
bin	4400	2
bin	4500	2
bin	4600	0
bin	4700	2
bin	4800	4
bin	4900	0
bin	5000	0
bin	5100	0
bin	5200	0
bin	5300	0
bin	5400	0
bin	5500	0
bin	5600	0
bin	5700	0
bin	5800	0
bin	5900	0
bin	6000	0
bin	6100	0
statistic ObstacleTest.host[1].wlan[0].radio packetErrorRate:histogram
field count 85
field mean 0
field stddev 0
field min 0
field max 0
field sum 0
field sqrsum 0
bin	-inf	0
bin	-0.5	0
bin	-0.48	0
bin	-0.46	0
bin	-0.44	0
bin	-0.42	0
bin	-0.4	0
bin	-0.38	0
bin	-0.36	0
bin	-0.34	0
bin	-0.32	0
bin	-0.3	0
bin	-0.28	0
bin	-0.26	0
bin	-0.24	0
bin	-0.22	0
bin	-0.2	0
bin	-0.18	0
bin	-0.16	0
bin	-0.14	0
bin	-0.12	0
bin	-0.1	0
bin	-0.08	0
bin	-0.06	0
bin	-0.04	0
bin	-0.02	0
bin	0	85
bin	0.02	0
bin	0.04	0
bin	0.06	0
bin	0.08	0
bin	0.1	0
bin	0.12	0
bin	0.14	0
bin	0.16	0
bin	0.18	0
bin	0.2	0
bin	0.22	0
bin	0.24	0
bin	0.26	0
bin	0.28	0
bin	0.3	0
bin	0.32	0
bin	0.34	0
bin	0.36	0
bin	0.38	0
bin	0.4	0
bin	0.42	0
bin	0.44	0
bin	0.46	0
bin	0.48	0
bin	0.5	0
statistic ObstacleTest.host[1].wlan[0].radio bitErrorRate:histogram
field count 0
field mean -nan
field stddev nan
field min nan
field max nan
field sum 0
field sqrsum 0
bin	-inf	0
bin	0	0
bin	1	0
statistic ObstacleTest.host[1].wlan[0].radio symbolErrorRate:histogram
field count 0
field mean -nan
field stddev nan
field min nan
field max nan
field sum 0
field sqrsum 0
bin	-inf	0
bin	0	0
bin	1	0
statistic ObstacleTest.host[1].app[0] rtt:histogram
field count 42
field mean 0.00052949993259524
field stddev 0.00024247396660606
field min 0.000234801193
field max 0.001490751379
field sum 0.022238997169
field sqrsum 1.418608610572e-05
bin	-inf	0
bin	0	0
bin	2e-05	0
bin	4e-05	0
bin	6e-05	0
bin	8e-05	0
bin	0.0001	0
bin	0.00012	0
bin	0.00014	0
bin	0.00016	0
bin	0.00018	0
bin	0.0002	0
bin	0.00022	3
bin	0.00024	3
bin	0.00026	0
bin	0.00028	1
bin	0.0003	2
bin	0.00032	2
bin	0.00034	0
bin	0.00036	4
bin	0.00038	2
bin	0.0004	0
bin	0.00042	2
bin	0.00044	0
bin	0.00046	1
bin	0.00048	0
bin	0.0005	1
bin	0.00052	1
bin	0.00054	1
bin	0.00056	3
bin	0.00058	2
bin	0.0006	2
bin	0.00062	1
bin	0.00064	0
bin	0.00066	0
bin	0.00068	2
bin	0.0007	1
bin	0.00072	2
bin	0.00074	0
bin	0.00076	1
bin	0.00078	1
bin	0.0008	1
bin	0.00082	1
bin	0.00084	1
bin	0.00086	0
bin	0.00088	0
bin	0.0009	0
bin	0.00092	0
bin	0.00094	0
bin	0.00096	0
bin	0.00098	0
bin	0.001	0
bin	0.00102	0
bin	0.00104	0
bin	0.00106	0
bin	0.00108	0
bin	0.0011	0
bin	0.00112	0
bin	0.00114	0
bin	0.00116	0
bin	0.00118	0
bin	0.0012	0
bin	0.00122	0
bin	0.00124	0
bin	0.00126	0
bin	0.00128	0
bin	0.0013	0
bin	0.00132	0
bin	0.00134	0
bin	0.00136	0
bin	0.00138	0
bin	0.0014	0
bin	0.00142	0
bin	0.00144	0
bin	0.00146	0
bin	0.00148	1
bin	0.0015	0
bin	0.00152	0
bin	0.00154	0
bin	0.00156	0
bin	0.00158	0
bin	0.0016	0
bin	0.00162	0
bin	0.00164	0
bin	0.00166	0
bin	0.00168	0
bin	0.0017	0
bin	0.00172	0
bin	0.00174	0
bin	0.00176	0
bin	0.00178	0
bin	0.0018	0
bin	0.00182	0
scalar ObstacleTest.host[0].lo[0].lo rcvdPkFromHl:vector(packetBytes):count 0
scalar ObstacleTest.host[0].lo[0].lo rcvdPkFromHl:vector(packetBytes):sum 0
scalar ObstacleTest.host[0].lo[0].lo rcvdPkFromHl:vector(packetBytes):sumweights 0
scalar ObstacleTest.host[0].lo[0].lo rcvdPkFromHl:vector(packetBytes):mean -nan
scalar ObstacleTest.host[0].lo[0].lo rcvdPkFromHl:vector(packetBytes):stddev nan
scalar ObstacleTest.host[0].lo[0].lo rcvdPkFromHl:vector(packetBytes):min inf
scalar ObstacleTest.host[0].lo[0].lo rcvdPkFromHl:vector(packetBytes):max -inf
scalar ObstacleTest.host[0].lo[0].lo rcvdPkFromHl:vector(packetBytes):starttime nan
scalar ObstacleTest.host[0].lo[0].lo rcvdPkFromHl:vector(packetBytes):endtime nan
scalar ObstacleTest.host[0].lo[0].lo passedUpPk:vector(packetBytes):count 0
scalar ObstacleTest.host[0].lo[0].lo passedUpPk:vector(packetBytes):sum 0
scalar ObstacleTest.host[0].lo[0].lo passedUpPk:vector(packetBytes):sumweights 0
scalar ObstacleTest.host[0].lo[0].lo passedUpPk:vector(packetBytes):mean -nan
scalar ObstacleTest.host[0].lo[0].lo passedUpPk:vector(packetBytes):stddev nan
scalar ObstacleTest.host[0].lo[0].lo passedUpPk:vector(packetBytes):min inf
scalar ObstacleTest.host[0].lo[0].lo passedUpPk:vector(packetBytes):max -inf
scalar ObstacleTest.host[0].lo[0].lo passedUpPk:vector(packetBytes):starttime nan
scalar ObstacleTest.host[0].lo[0].lo passedUpPk:vector(packetBytes):endtime nan
scalar ObstacleTest.host[0].lo[0] packetDropInterfaceDown:vector(packetBytes):count 0
scalar ObstacleTest.host[0].lo[0] packetDropInterfaceDown:vector(packetBytes):sum 0
scalar ObstacleTest.host[0].lo[0] packetDropInterfaceDown:vector(packetBytes):sumweights 0
scalar ObstacleTest.host[0].lo[0] packetDropInterfaceDown:vector(packetBytes):mean -nan
scalar ObstacleTest.host[0].lo[0] packetDropInterfaceDown:vector(packetBytes):stddev nan
scalar ObstacleTest.host[0].lo[0] packetDropInterfaceDown:vector(packetBytes):min inf
scalar ObstacleTest.host[0].lo[0] packetDropInterfaceDown:vector(packetBytes):max -inf
scalar ObstacleTest.host[0].lo[0] packetDropInterfaceDown:vector(packetBytes):starttime nan
scalar ObstacleTest.host[0].lo[0] packetDropInterfaceDown:vector(packetBytes):endtime nan
scalar ObstacleTest.host[0].lo[0] packetDropNoCarrier:vector(packetBytes):count 0
scalar ObstacleTest.host[0].lo[0] packetDropNoCarrier:vector(packetBytes):sum 0
scalar ObstacleTest.host[0].lo[0] packetDropNoCarrier:vector(packetBytes):sumweights 0
scalar ObstacleTest.host[0].lo[0] packetDropNoCarrier:vector(packetBytes):mean -nan
scalar ObstacleTest.host[0].lo[0] packetDropNoCarrier:vector(packetBytes):stddev nan
scalar ObstacleTest.host[0].lo[0] packetDropNoCarrier:vector(packetBytes):min inf
scalar ObstacleTest.host[0].lo[0] packetDropNoCarrier:vector(packetBytes):max -inf
scalar ObstacleTest.host[0].lo[0] packetDropNoCarrier:vector(packetBytes):starttime nan
scalar ObstacleTest.host[0].lo[0] packetDropNoCarrier:vector(packetBytes):endtime nan
scalar ObstacleTest.host[0].wlan[0].mac.dcf.channelAccess.pendingQueue queueLength:vector:count 91
scalar ObstacleTest.host[0].wlan[0].mac.dcf.channelAccess.pendingQueue queueLength:vector:sum 43
scalar ObstacleTest.host[0].wlan[0].mac.dcf.channelAccess.pendingQueue queueLength:vector:sumweights 91
scalar ObstacleTest.host[0].wlan[0].mac.dcf.channelAccess.pendingQueue queueLength:vector:mean 0.47252747252747
scalar ObstacleTest.host[0].wlan[0].mac.dcf.channelAccess.pendingQueue queueLength:vector:stddev 0.50201060946423
scalar ObstacleTest.host[0].wlan[0].mac.dcf.channelAccess.pendingQueue queueLength:vector:min 0
scalar ObstacleTest.host[0].wlan[0].mac.dcf.channelAccess.pendingQueue queueLength:vector:max 1
scalar ObstacleTest.host[0].wlan[0].mac.dcf.channelAccess.pendingQueue queueLength:vector:starttime 0
scalar ObstacleTest.host[0].wlan[0].mac.dcf.channelAccess.pendingQueue queueLength:vector:endtime 41.000305284933
scalar ObstacleTest.host[0].wlan[0].mac.dcf.channelAccess.pendingQueue queueBitLength:vector:count 91
scalar ObstacleTest.host[0].wlan[0].mac.dcf.channelAccess.pendingQueue queueBitLength:vector:sum 40832
scalar ObstacleTest.host[0].wlan[0].mac.dcf.channelAccess.pendingQueue queueBitLength:vector:sumweights 91
scalar ObstacleTest.host[0].wlan[0].mac.dcf.channelAccess.pendingQueue queueBitLength:vector:mean 448.7032967033
scalar ObstacleTest.host[0].wlan[0].mac.dcf.channelAccess.pendingQueue queueBitLength:vector:stddev 478.97913418959
scalar ObstacleTest.host[0].wlan[0].mac.dcf.channelAccess.pendingQueue queueBitLength:vector:min 0
scalar ObstacleTest.host[0].wlan[0].mac.dcf.channelAccess.pendingQueue queueBitLength:vector:max 960
scalar ObstacleTest.host[0].wlan[0].mac.dcf.channelAccess.pendingQueue queueBitLength:vector:starttime 0
scalar ObstacleTest.host[0].wlan[0].mac.dcf.channelAccess.pendingQueue queueBitLength:vector:endtime 41.000305284933
scalar ObstacleTest.host[0].wlan[0].mac.dcf.channelAccess.pendingQueue queueingTime:vector:count 43
scalar ObstacleTest.host[0].wlan[0].mac.dcf.channelAccess.pendingQueue queueingTime:vector:sum 0.015398
scalar ObstacleTest.host[0].wlan[0].mac.dcf.channelAccess.pendingQueue queueingTime:vector:sumweights 43
scalar ObstacleTest.host[0].wlan[0].mac.dcf.channelAccess.pendingQueue queueingTime:vector:mean 0.00035809302325581
scalar ObstacleTest.host[0].wlan[0].mac.dcf.channelAccess.pendingQueue queueingTime:vector:stddev 0.00019126742858072
scalar ObstacleTest.host[0].wlan[0].mac.dcf.channelAccess.pendingQueue queueingTime:vector:min 9.4e-05
scalar ObstacleTest.host[0].wlan[0].mac.dcf.channelAccess.pendingQueue queueingTime:vector:max 0.000714
scalar ObstacleTest.host[0].wlan[0].mac.dcf.channelAccess.pendingQueue queueingTime:vector:starttime 0.000690687869
scalar ObstacleTest.host[0].wlan[0].mac.dcf.channelAccess.pendingQueue queueingTime:vector:endtime 41.000305284933
scalar ObstacleTest.host[0].wlan[0].mac.dcf.channelAccess.pendingQueue incomingPacketLengths:vector:count 43
scalar ObstacleTest.host[0].wlan[0].mac.dcf.channelAccess.pendingQueue incomingPacketLengths:vector:sum 40832
scalar ObstacleTest.host[0].wlan[0].mac.dcf.channelAccess.pendingQueue incomingPacketLengths:vector:sumweights 43
scalar ObstacleTest.host[0].wlan[0].mac.dcf.channelAccess.pendingQueue incomingPacketLengths:vector:mean 949.58139534884
scalar ObstacleTest.host[0].wlan[0].mac.dcf.channelAccess.pendingQueue incomingPacketLengths:vector:stddev 68.319359509007
scalar ObstacleTest.host[0].wlan[0].mac.dcf.channelAccess.pendingQueue incomingPacketLengths:vector:min 512
scalar ObstacleTest.host[0].wlan[0].mac.dcf.channelAccess.pendingQueue incomingPacketLengths:vector:max 960
scalar ObstacleTest.host[0].wlan[0].mac.dcf.channelAccess.pendingQueue incomingPacketLengths:vector:starttime 0.000340687869
scalar ObstacleTest.host[0].wlan[0].mac.dcf.channelAccess.pendingQueue incomingPacketLengths:vector:endtime 41.000071284933
scalar ObstacleTest.host[0].wlan[0].mac.dcf.channelAccess.pendingQueue incomingDataRate:vector:count 1000
scalar ObstacleTest.host[0].wlan[0].mac.dcf.channelAccess.pendingQueue incomingDataRate:vector:sum 408320
scalar ObstacleTest.host[0].wlan[0].mac.dcf.channelAccess.pendingQueue incomingDataRate:vector:sumweights 1000
scalar ObstacleTest.host[0].wlan[0].mac.dcf.channelAccess.pendingQueue incomingDataRate:vector:mean 408.32
scalar ObstacleTest.host[0].wlan[0].mac.dcf.channelAccess.pendingQueue incomingDataRate:vector:stddev 1957.6377405238
scalar ObstacleTest.host[0].wlan[0].mac.dcf.channelAccess.pendingQueue incomingDataRate:vector:min 0
scalar ObstacleTest.host[0].wlan[0].mac.dcf.channelAccess.pendingQueue incomingDataRate:vector:max 14720
scalar ObstacleTest.host[0].wlan[0].mac.dcf.channelAccess.pendingQueue incomingDataRate:vector:starttime 0.1
scalar ObstacleTest.host[0].wlan[0].mac.dcf.channelAccess.pendingQueue incomingDataRate:vector:endtime 100
scalar ObstacleTest.host[0].wlan[0].mac.dcf.channelAccess.pendingQueue outgoingPacketLengths:vector:count 43
scalar ObstacleTest.host[0].wlan[0].mac.dcf.channelAccess.pendingQueue outgoingPacketLengths:vector:sum 40832
scalar ObstacleTest.host[0].wlan[0].mac.dcf.channelAccess.pendingQueue outgoingPacketLengths:vector:sumweights 43
scalar ObstacleTest.host[0].wlan[0].mac.dcf.channelAccess.pendingQueue outgoingPacketLengths:vector:mean 949.58139534884
scalar ObstacleTest.host[0].wlan[0].mac.dcf.channelAccess.pendingQueue outgoingPacketLengths:vector:stddev 68.319359509007
scalar ObstacleTest.host[0].wlan[0].mac.dcf.channelAccess.pendingQueue outgoingPacketLengths:vector:min 512
scalar ObstacleTest.host[0].wlan[0].mac.dcf.channelAccess.pendingQueue outgoingPacketLengths:vector:max 960
scalar ObstacleTest.host[0].wlan[0].mac.dcf.channelAccess.pendingQueue outgoingPacketLengths:vector:starttime 0.000690687869
scalar ObstacleTest.host[0].wlan[0].mac.dcf.channelAccess.pendingQueue outgoingPacketLengths:vector:endtime 41.000305284933
scalar ObstacleTest.host[0].wlan[0].mac.dcf.channelAccess.pendingQueue outgoingDataRate:vector:count 1000
scalar ObstacleTest.host[0].wlan[0].mac.dcf.channelAccess.pendingQueue outgoingDataRate:vector:sum 408320
scalar ObstacleTest.host[0].wlan[0].mac.dcf.channelAccess.pendingQueue outgoingDataRate:vector:sumweights 1000
scalar ObstacleTest.host[0].wlan[0].mac.dcf.channelAccess.pendingQueue outgoingDataRate:vector:mean 408.32
scalar ObstacleTest.host[0].wlan[0].mac.dcf.channelAccess.pendingQueue outgoingDataRate:vector:stddev 1957.6377405238
scalar ObstacleTest.host[0].wlan[0].mac.dcf.channelAccess.pendingQueue outgoingDataRate:vector:min 0
scalar ObstacleTest.host[0].wlan[0].mac.dcf.channelAccess.pendingQueue outgoingDataRate:vector:max 14720
scalar ObstacleTest.host[0].wlan[0].mac.dcf.channelAccess.pendingQueue outgoingDataRate:vector:starttime 0.1
scalar ObstacleTest.host[0].wlan[0].mac.dcf.channelAccess.pendingQueue outgoingDataRate:vector:endtime 100
scalar ObstacleTest.host[0].wlan[0].mac.dcf.channelAccess.pendingQueue droppedPacketLengthsQueueOverflow:vector:count 0
scalar ObstacleTest.host[0].wlan[0].mac.dcf.channelAccess.pendingQueue droppedPacketLengthsQueueOverflow:vector:sum 0
scalar ObstacleTest.host[0].wlan[0].mac.dcf.channelAccess.pendingQueue droppedPacketLengthsQueueOverflow:vector:sumweights 0
scalar ObstacleTest.host[0].wlan[0].mac.dcf.channelAccess.pendingQueue droppedPacketLengthsQueueOverflow:vector:mean -nan
scalar ObstacleTest.host[0].wlan[0].mac.dcf.channelAccess.pendingQueue droppedPacketLengthsQueueOverflow:vector:stddev nan
scalar ObstacleTest.host[0].wlan[0].mac.dcf.channelAccess.pendingQueue droppedPacketLengthsQueueOverflow:vector:min inf
scalar ObstacleTest.host[0].wlan[0].mac.dcf.channelAccess.pendingQueue droppedPacketLengthsQueueOverflow:vector:max -inf
scalar ObstacleTest.host[0].wlan[0].mac.dcf.channelAccess.pendingQueue droppedPacketLengthsQueueOverflow:vector:starttime nan
scalar ObstacleTest.host[0].wlan[0].mac.dcf.channelAccess.pendingQueue droppedPacketLengthsQueueOverflow:vector:endtime nan
scalar ObstacleTest.host[0].wlan[0].mac.dcf.channelAccess.pendingQueue flowQueueingTime:vector:count 0
[...]
scalar ObstacleTest.host[1].wlan[0].mac packetDropRetryLimitReached:vector(packetBytes):stddev 0
scalar ObstacleTest.host[1].wlan[0].mac packetDropRetryLimitReached:vector(packetBytes):min 120
scalar ObstacleTest.host[1].wlan[0].mac packetDropRetryLimitReached:vector(packetBytes):max 120
scalar ObstacleTest.host[1].wlan[0].mac packetDropRetryLimitReached:vector(packetBytes):starttime 42.031549
scalar ObstacleTest.host[1].wlan[0].mac packetDropRetryLimitReached:vector(packetBytes):endtime 99.081829
scalar ObstacleTest.host[1].wlan[0].mac packetDropDuplicateDetected:vector(packetBytes):count 0
scalar ObstacleTest.host[1].wlan[0].mac packetDropDuplicateDetected:vector(packetBytes):sum 0
scalar ObstacleTest.host[1].wlan[0].mac packetDropDuplicateDetected:vector(packetBytes):sumweights 0
scalar ObstacleTest.host[1].wlan[0].mac packetDropDuplicateDetected:vector(packetBytes):mean -nan
scalar ObstacleTest.host[1].wlan[0].mac packetDropDuplicateDetected:vector(packetBytes):stddev nan
scalar ObstacleTest.host[1].wlan[0].mac packetDropDuplicateDetected:vector(packetBytes):min inf
scalar ObstacleTest.host[1].wlan[0].mac packetDropDuplicateDetected:vector(packetBytes):max -inf
scalar ObstacleTest.host[1].wlan[0].mac packetDropDuplicateDetected:vector(packetBytes):starttime nan
scalar ObstacleTest.host[1].wlan[0].mac packetDropDuplicateDetected:vector(packetBytes):endtime nan
scalar ObstacleTest.host[1].wlan[0].mac packetDropOther:vector(packetBytes):count 0
scalar ObstacleTest.host[1].wlan[0].mac packetDropOther:vector(packetBytes):sum 0
scalar ObstacleTest.host[1].wlan[0].mac packetDropOther:vector(packetBytes):sumweights 0
scalar ObstacleTest.host[1].wlan[0].mac packetDropOther:vector(packetBytes):mean -nan
scalar ObstacleTest.host[1].wlan[0].mac packetDropOther:vector(packetBytes):stddev nan
scalar ObstacleTest.host[1].wlan[0].mac packetDropOther:vector(packetBytes):min inf
scalar ObstacleTest.host[1].wlan[0].mac packetDropOther:vector(packetBytes):max -inf
scalar ObstacleTest.host[1].wlan[0].mac packetDropOther:vector(packetBytes):starttime nan
scalar ObstacleTest.host[1].wlan[0].mac packetDropOther:vector(packetBytes):endtime nan
scalar ObstacleTest.host[1].wlan[0].radio radioMode:vector:count 988
scalar ObstacleTest.host[1].wlan[0].radio radioMode:vector:sum 2465
scalar ObstacleTest.host[1].wlan[0].radio radioMode:vector:sumweights 988
scalar ObstacleTest.host[1].wlan[0].radio radioMode:vector:mean 2.4949392712551
scalar ObstacleTest.host[1].wlan[0].radio radioMode:vector:stddev 0.51223599111542
scalar ObstacleTest.host[1].wlan[0].radio radioMode:vector:min 0
scalar ObstacleTest.host[1].wlan[0].radio radioMode:vector:max 3
scalar ObstacleTest.host[1].wlan[0].radio radioMode:vector:starttime 0
scalar ObstacleTest.host[1].wlan[0].radio radioMode:vector:endtime 100
scalar ObstacleTest.host[1].wlan[0].radio receptionState:vector:count 1156
scalar ObstacleTest.host[1].wlan[0].radio receptionState:vector:sum 833
scalar ObstacleTest.host[1].wlan[0].radio receptionState:vector:sumweights 1156
scalar ObstacleTest.host[1].wlan[0].radio receptionState:vector:mean 0.72058823529412
scalar ObstacleTest.host[1].wlan[0].radio receptionState:vector:stddev 0.80191869480241
scalar ObstacleTest.host[1].wlan[0].radio receptionState:vector:min 0
scalar ObstacleTest.host[1].wlan[0].radio receptionState:vector:max 3
scalar ObstacleTest.host[1].wlan[0].radio receptionState:vector:starttime 0
scalar ObstacleTest.host[1].wlan[0].radio receptionState:vector:endtime 100
scalar ObstacleTest.host[1].wlan[0].radio transmissionState:vector:count 1970
scalar ObstacleTest.host[1].wlan[0].radio transmissionState:vector:sum 1971
scalar ObstacleTest.host[1].wlan[0].radio transmissionState:vector:sumweights 1970
scalar ObstacleTest.host[1].wlan[0].radio transmissionState:vector:mean 1.0005076142132
scalar ObstacleTest.host[1].wlan[0].radio transmissionState:vector:stddev 0.70728613601927
scalar ObstacleTest.host[1].wlan[0].radio transmissionState:vector:min 0
scalar ObstacleTest.host[1].wlan[0].radio transmissionState:vector:max 2
scalar ObstacleTest.host[1].wlan[0].radio transmissionState:vector:starttime 0.00029
scalar ObstacleTest.host[1].wlan[0].radio transmissionState:vector:endtime 100
scalar ObstacleTest.host[1].wlan[0].radio radioChannel:vector:count 1
scalar ObstacleTest.host[1].wlan[0].radio radioChannel:vector:sum 0
scalar ObstacleTest.host[1].wlan[0].radio radioChannel:vector:sumweights 1
scalar ObstacleTest.host[1].wlan[0].radio radioChannel:vector:mean 0
scalar ObstacleTest.host[1].wlan[0].radio radioChannel:vector:stddev nan
scalar ObstacleTest.host[1].wlan[0].radio radioChannel:vector:min 0
scalar ObstacleTest.host[1].wlan[0].radio radioChannel:vector:max 0
scalar ObstacleTest.host[1].wlan[0].radio radioChannel:vector:starttime 0
scalar ObstacleTest.host[1].wlan[0].radio radioChannel:vector:endtime 0
scalar ObstacleTest.host[1].wlan[0] packetDropInterfaceDown:vector(packetBytes):count 0
scalar ObstacleTest.host[1].wlan[0] packetDropInterfaceDown:vector(packetBytes):sum 0
scalar ObstacleTest.host[1].wlan[0] packetDropInterfaceDown:vector(packetBytes):sumweights 0
scalar ObstacleTest.host[1].wlan[0] packetDropInterfaceDown:vector(packetBytes):mean -nan
scalar ObstacleTest.host[1].wlan[0] packetDropInterfaceDown:vector(packetBytes):stddev nan
scalar ObstacleTest.host[1].wlan[0] packetDropInterfaceDown:vector(packetBytes):min inf
scalar ObstacleTest.host[1].wlan[0] packetDropInterfaceDown:vector(packetBytes):max -inf
scalar ObstacleTest.host[1].wlan[0] packetDropInterfaceDown:vector(packetBytes):starttime nan
scalar ObstacleTest.host[1].wlan[0] packetDropInterfaceDown:vector(packetBytes):endtime nan
scalar ObstacleTest.host[1].wlan[0] packetDropNoCarrier:vector(packetBytes):count 0
scalar ObstacleTest.host[1].wlan[0] packetDropNoCarrier:vector(packetBytes):sum 0
scalar ObstacleTest.host[1].wlan[0] packetDropNoCarrier:vector(packetBytes):sumweights 0
scalar ObstacleTest.host[1].wlan[0] packetDropNoCarrier:vector(packetBytes):mean -nan
scalar ObstacleTest.host[1].wlan[0] packetDropNoCarrier:vector(packetBytes):stddev nan
scalar ObstacleTest.host[1].wlan[0] packetDropNoCarrier:vector(packetBytes):min inf
scalar ObstacleTest.host[1].wlan[0] packetDropNoCarrier:vector(packetBytes):max -inf
scalar ObstacleTest.host[1].wlan[0] packetDropNoCarrier:vector(packetBytes):starttime nan
scalar ObstacleTest.host[1].wlan[0] packetDropNoCarrier:vector(packetBytes):endtime nan
scalar ObstacleTest.host[1].ipv4.ip packetDropAddressResolutionFailed:vector(packetBytes):count 0
scalar ObstacleTest.host[1].ipv4.ip packetDropAddressResolutionFailed:vector(packetBytes):sum 0
scalar ObstacleTest.host[1].ipv4.ip packetDropAddressResolutionFailed:vector(packetBytes):sumweights 0
scalar ObstacleTest.host[1].ipv4.ip packetDropAddressResolutionFailed:vector(packetBytes):mean -nan
scalar ObstacleTest.host[1].ipv4.ip packetDropAddressResolutionFailed:vector(packetBytes):stddev nan
scalar ObstacleTest.host[1].ipv4.ip packetDropAddressResolutionFailed:vector(packetBytes):min inf
scalar ObstacleTest.host[1].ipv4.ip packetDropAddressResolutionFailed:vector(packetBytes):max -inf
scalar ObstacleTest.host[1].ipv4.ip packetDropAddressResolutionFailed:vector(packetBytes):starttime nan
scalar ObstacleTest.host[1].ipv4.ip packetDropAddressResolutionFailed:vector(packetBytes):endtime nan
scalar ObstacleTest.host[1].ipv4.ip packetDropHopLimitReached:vector(packetBytes):count 0
scalar ObstacleTest.host[1].ipv4.ip packetDropHopLimitReached:vector(packetBytes):sum 0
scalar ObstacleTest.host[1].ipv4.ip packetDropHopLimitReached:vector(packetBytes):sumweights 0
scalar ObstacleTest.host[1].ipv4.ip packetDropHopLimitReached:vector(packetBytes):mean -nan
scalar ObstacleTest.host[1].ipv4.ip packetDropHopLimitReached:vector(packetBytes):stddev nan
scalar ObstacleTest.host[1].ipv4.ip packetDropHopLimitReached:vector(packetBytes):min inf
scalar ObstacleTest.host[1].ipv4.ip packetDropHopLimitReached:vector(packetBytes):max -inf
scalar ObstacleTest.host[1].ipv4.ip packetDropHopLimitReached:vector(packetBytes):starttime nan
scalar ObstacleTest.host[1].ipv4.ip packetDropHopLimitReached:vector(packetBytes):endtime nan
scalar ObstacleTest.host[1].ipv4.ip packetDropForwardingDisabled:vector(packetBytes):count 0
scalar ObstacleTest.host[1].ipv4.ip packetDropForwardingDisabled:vector(packetBytes):sum 0
scalar ObstacleTest.host[1].ipv4.ip packetDropForwardingDisabled:vector(packetBytes):sumweights 0
scalar ObstacleTest.host[1].ipv4.ip packetDropForwardingDisabled:vector(packetBytes):mean -nan
scalar ObstacleTest.host[1].ipv4.ip packetDropForwardingDisabled:vector(packetBytes):stddev nan
scalar ObstacleTest.host[1].ipv4.ip packetDropForwardingDisabled:vector(packetBytes):min inf
scalar ObstacleTest.host[1].ipv4.ip packetDropForwardingDisabled:vector(packetBytes):max -inf
scalar ObstacleTest.host[1].ipv4.ip packetDropForwardingDisabled:vector(packetBytes):starttime nan
scalar ObstacleTest.host[1].ipv4.ip packetDropForwardingDisabled:vector(packetBytes):endtime nan
scalar ObstacleTest.host[1].ipv4.ip packetDropLifetimeExpired:vector(packetBytes):count 0
scalar ObstacleTest.host[1].ipv4.ip packetDropLifetimeExpired:vector(packetBytes):sum 0
scalar ObstacleTest.host[1].ipv4.ip packetDropLifetimeExpired:vector(packetBytes):sumweights 0
scalar ObstacleTest.host[1].ipv4.ip packetDropLifetimeExpired:vector(packetBytes):mean -nan
scalar ObstacleTest.host[1].ipv4.ip packetDropLifetimeExpired:vector(packetBytes):stddev nan
scalar ObstacleTest.host[1].ipv4.ip packetDropLifetimeExpired:vector(packetBytes):min inf
scalar ObstacleTest.host[1].ipv4.ip packetDropLifetimeExpired:vector(packetBytes):max -inf
scalar ObstacleTest.host[1].ipv4.ip packetDropLifetimeExpired:vector(packetBytes):starttime nan
scalar ObstacleTest.host[1].ipv4.ip packetDropLifetimeExpired:vector(packetBytes):endtime nan
scalar ObstacleTest.host[1].ipv4.ip packetDropNoInterfaceFound:vector(packetBytes):count 0
scalar ObstacleTest.host[1].ipv4.ip packetDropNoInterfaceFound:vector(packetBytes):sum 0
scalar ObstacleTest.host[1].ipv4.ip packetDropNoInterfaceFound:vector(packetBytes):sumweights 0
scalar ObstacleTest.host[1].ipv4.ip packetDropNoInterfaceFound:vector(packetBytes):mean -nan
scalar ObstacleTest.host[1].ipv4.ip packetDropNoInterfaceFound:vector(packetBytes):stddev nan
scalar ObstacleTest.host[1].ipv4.ip packetDropNoInterfaceFound:vector(packetBytes):min inf
scalar ObstacleTest.host[1].ipv4.ip packetDropNoInterfaceFound:vector(packetBytes):max -inf
scalar ObstacleTest.host[1].ipv4.ip packetDropNoInterfaceFound:vector(packetBytes):starttime nan
scalar ObstacleTest.host[1].ipv4.ip packetDropNoInterfaceFound:vector(packetBytes):endtime nan
scalar ObstacleTest.host[1].ipv4.ip packetDropNoRouteFound:vector(packetBytes):count 0
scalar ObstacleTest.host[1].ipv4.ip packetDropNoRouteFound:vector(packetBytes):sum 0
scalar ObstacleTest.host[1].ipv4.ip packetDropNoRouteFound:vector(packetBytes):sumweights 0
scalar ObstacleTest.host[1].ipv4.ip packetDropNoRouteFound:vector(packetBytes):mean -nan
scalar ObstacleTest.host[1].ipv4.ip packetDropNoRouteFound:vector(packetBytes):stddev nan
scalar ObstacleTest.host[1].ipv4.ip packetDropNoRouteFound:vector(packetBytes):min inf
scalar ObstacleTest.host[1].ipv4.ip packetDropNoRouteFound:vector(packetBytes):max -inf
scalar ObstacleTest.host[1].ipv4.ip packetDropNoRouteFound:vector(packetBytes):starttime nan
scalar ObstacleTest.host[1].ipv4.ip packetDropNoRouteFound:vector(packetBytes):endtime nan
scalar ObstacleTest.host[1].ipv4.ip packetDropUndefined:vector(packetBytes):count 0
scalar ObstacleTest.host[1].ipv4.ip packetDropUndefined:vector(packetBytes):sum 0
scalar ObstacleTest.host[1].ipv4.ip packetDropUndefined:vector(packetBytes):sumweights 0
scalar ObstacleTest.host[1].ipv4.ip packetDropUndefined:vector(packetBytes):mean -nan
scalar ObstacleTest.host[1].ipv4.ip packetDropUndefined:vector(packetBytes):stddev nan
scalar ObstacleTest.host[1].ipv4.ip packetDropUndefined:vector(packetBytes):min inf
scalar ObstacleTest.host[1].ipv4.ip packetDropUndefined:vector(packetBytes):max -inf
scalar ObstacleTest.host[1].ipv4.ip packetDropUndefined:vector(packetBytes):starttime nan
scalar ObstacleTest.host[1].ipv4.ip packetDropUndefined:vector(packetBytes):endtime nan
scalar ObstacleTest.host[1].ipv4.arp arpRequestSent:vector(packetBytes):count 1
scalar ObstacleTest.host[1].ipv4.arp arpRequestSent:vector(packetBytes):sum 28
scalar ObstacleTest.host[1].ipv4.arp arpRequestSent:vector(packetBytes):sumweights 1
scalar ObstacleTest.host[1].ipv4.arp arpRequestSent:vector(packetBytes):mean 28
scalar ObstacleTest.host[1].ipv4.arp arpRequestSent:vector(packetBytes):stddev nan
scalar ObstacleTest.host[1].ipv4.arp arpRequestSent:vector(packetBytes):min 28
scalar ObstacleTest.host[1].ipv4.arp arpRequestSent:vector(packetBytes):max 28
scalar ObstacleTest.host[1].ipv4.arp arpRequestSent:vector(packetBytes):starttime 0
scalar ObstacleTest.host[1].ipv4.arp arpRequestSent:vector(packetBytes):endtime 0
scalar ObstacleTest.host[1].ipv4.arp arpReplySent:vector(packetBytes):count 0
scalar ObstacleTest.host[1].ipv4.arp arpReplySent:vector(packetBytes):sum 0
scalar ObstacleTest.host[1].ipv4.arp arpReplySent:vector(packetBytes):sumweights 0
scalar ObstacleTest.host[1].ipv4.arp arpReplySent:vector(packetBytes):mean -nan
scalar ObstacleTest.host[1].ipv4.arp arpReplySent:vector(packetBytes):stddev nan
scalar ObstacleTest.host[1].ipv4.arp arpReplySent:vector(packetBytes):min inf
scalar ObstacleTest.host[1].ipv4.arp arpReplySent:vector(packetBytes):max -inf
scalar ObstacleTest.host[1].ipv4.arp arpReplySent:vector(packetBytes):starttime nan
scalar ObstacleTest.host[1].ipv4.arp arpReplySent:vector(packetBytes):endtime nan
scalar ObstacleTest.host[1].udp packetSent:vector(packetBytes):count 0
scalar ObstacleTest.host[1].udp packetSent:vector(packetBytes):sum 0
scalar ObstacleTest.host[1].udp packetSent:vector(packetBytes):sumweights 0
scalar ObstacleTest.host[1].udp packetSent:vector(packetBytes):mean -nan
scalar ObstacleTest.host[1].udp packetSent:vector(packetBytes):stddev nan
scalar ObstacleTest.host[1].udp packetSent:vector(packetBytes):min inf
scalar ObstacleTest.host[1].udp packetSent:vector(packetBytes):max -inf
scalar ObstacleTest.host[1].udp packetSent:vector(packetBytes):starttime nan
scalar ObstacleTest.host[1].udp packetSent:vector(packetBytes):endtime nan
scalar ObstacleTest.host[1].udp packetReceived:vector(packetBytes):count 0
scalar ObstacleTest.host[1].udp packetReceived:vector(packetBytes):sum 0
scalar ObstacleTest.host[1].udp packetReceived:vector(packetBytes):sumweights 0
scalar ObstacleTest.host[1].udp packetReceived:vector(packetBytes):mean -nan
scalar ObstacleTest.host[1].udp packetReceived:vector(packetBytes):stddev nan
scalar ObstacleTest.host[1].udp packetReceived:vector(packetBytes):min inf
scalar ObstacleTest.host[1].udp packetReceived:vector(packetBytes):max -inf
scalar ObstacleTest.host[1].udp packetReceived:vector(packetBytes):starttime nan
scalar ObstacleTest.host[1].udp packetReceived:vector(packetBytes):endtime nan
scalar ObstacleTest.host[1].udp passedUpPk:vector(count):count 1
scalar ObstacleTest.host[1].udp passedUpPk:vector(count):sum 0
scalar ObstacleTest.host[1].udp passedUpPk:vector(count):sumweights 1
scalar ObstacleTest.host[1].udp passedUpPk:vector(count):mean 0
scalar ObstacleTest.host[1].udp passedUpPk:vector(count):stddev nan
scalar ObstacleTest.host[1].udp passedUpPk:vector(count):min 0
scalar ObstacleTest.host[1].udp passedUpPk:vector(count):max 0
scalar ObstacleTest.host[1].udp passedUpPk:vector(count):starttime 0
scalar ObstacleTest.host[1].udp passedUpPk:vector(count):endtime 0
scalar ObstacleTest.host[1].udp droppedPkWrongPort:vector(count):count 1
scalar ObstacleTest.host[1].udp droppedPkWrongPort:vector(count):sum 0
scalar ObstacleTest.host[1].udp droppedPkWrongPort:vector(count):sumweights 1
scalar ObstacleTest.host[1].udp droppedPkWrongPort:vector(count):mean 0
scalar ObstacleTest.host[1].udp droppedPkWrongPort:vector(count):stddev nan
scalar ObstacleTest.host[1].udp droppedPkWrongPort:vector(count):min 0
scalar ObstacleTest.host[1].udp droppedPkWrongPort:vector(count):max 0
scalar ObstacleTest.host[1].udp droppedPkWrongPort:vector(count):starttime 0
scalar ObstacleTest.host[1].udp droppedPkWrongPort:vector(count):endtime 0
scalar ObstacleTest.host[1].udp droppedPkBadChecksum:vector(count):count 1
scalar ObstacleTest.host[1].udp droppedPkBadChecksum:vector(count):sum 0
scalar ObstacleTest.host[1].udp droppedPkBadChecksum:vector(count):sumweights 1
scalar ObstacleTest.host[1].udp droppedPkBadChecksum:vector(count):mean 0
scalar ObstacleTest.host[1].udp droppedPkBadChecksum:vector(count):stddev nan
scalar ObstacleTest.host[1].udp droppedPkBadChecksum:vector(count):min 0
scalar ObstacleTest.host[1].udp droppedPkBadChecksum:vector(count):max 0
scalar ObstacleTest.host[1].udp droppedPkBadChecksum:vector(count):starttime 0
scalar ObstacleTest.host[1].udp droppedPkBadChecksum:vector(count):endtime 0
scalar ObstacleTest.host[1].app[0] rtt:vector:count 42
scalar ObstacleTest.host[1].app[0] rtt:vector:sum 0.022238997169
scalar ObstacleTest.host[1].app[0] rtt:vector:sumweights 42
scalar ObstacleTest.host[1].app[0] rtt:vector:mean 0.00052949993259524
scalar ObstacleTest.host[1].app[0] rtt:vector:stddev 0.00024247396660606
scalar ObstacleTest.host[1].app[0] rtt:vector:min 0.000234801193
scalar ObstacleTest.host[1].app[0] rtt:vector:max 0.001490751379
scalar ObstacleTest.host[1].app[0] rtt:vector:starttime 0.001490751379
scalar ObstacleTest.host[1].app[0] rtt:vector:endtime 41.000376569878
scalar ObstacleTest.host[1].app[0] numLost:vector:count 0
scalar ObstacleTest.host[1].app[0] numLost:vector:sum 0
scalar ObstacleTest.host[1].app[0] numLost:vector:sumweights 0
scalar ObstacleTest.host[1].app[0] numLost:vector:mean -nan
scalar ObstacleTest.host[1].app[0] numLost:vector:stddev nan
scalar ObstacleTest.host[1].app[0] numLost:vector:min inf
scalar ObstacleTest.host[1].app[0] numLost:vector:max -inf
scalar ObstacleTest.host[1].app[0] numLost:vector:starttime nan
scalar ObstacleTest.host[1].app[0] numLost:vector:endtime nan
scalar ObstacleTest.host[1].app[0] numOutOfOrderArrivals:vector:count 0
scalar ObstacleTest.host[1].app[0] numOutOfOrderArrivals:vector:sum 0
scalar ObstacleTest.host[1].app[0] numOutOfOrderArrivals:vector:sumweights 0
scalar ObstacleTest.host[1].app[0] numOutOfOrderArrivals:vector:mean -nan
scalar ObstacleTest.host[1].app[0] numOutOfOrderArrivals:vector:stddev nan
scalar ObstacleTest.host[1].app[0] numOutOfOrderArrivals:vector:min inf
scalar ObstacleTest.host[1].app[0] numOutOfOrderArrivals:vector:max -inf
scalar ObstacleTest.host[1].app[0] numOutOfOrderArrivals:vector:starttime nan
scalar ObstacleTest.host[1].app[0] numOutOfOrderArrivals:vector:endtime nan
scalar ObstacleTest.host[1].app[0] pingTxSeq:vector:count 101
scalar ObstacleTest.host[1].app[0] pingTxSeq:vector:sum 5050
scalar ObstacleTest.host[1].app[0] pingTxSeq:vector:sumweights 101
scalar ObstacleTest.host[1].app[0] pingTxSeq:vector:mean 50
scalar ObstacleTest.host[1].app[0] pingTxSeq:vector:stddev 29.300170647967
scalar ObstacleTest.host[1].app[0] pingTxSeq:vector:min 0
scalar ObstacleTest.host[1].app[0] pingTxSeq:vector:max 100
scalar ObstacleTest.host[1].app[0] pingTxSeq:vector:starttime 0
scalar ObstacleTest.host[1].app[0] pingTxSeq:vector:endtime 100
scalar ObstacleTest.host[1].app[0] pingRxSeq:vector:count 42
scalar ObstacleTest.host[1].app[0] pingRxSeq:vector:sum 861
scalar ObstacleTest.host[1].app[0] pingRxSeq:vector:sumweights 42
scalar ObstacleTest.host[1].app[0] pingRxSeq:vector:mean 20.5
scalar ObstacleTest.host[1].app[0] pingRxSeq:vector:stddev 12.267844146385
scalar ObstacleTest.host[1].app[0] pingRxSeq:vector:min 0
scalar ObstacleTest.host[1].app[0] pingRxSeq:vector:max 41
scalar ObstacleTest.host[1].app[0] pingRxSeq:vector:starttime 0.001490751379
scalar ObstacleTest.host[1].app[0] pingRxSeq:vector:endtime 41.000376569878

