version 3
run RoutedWlans-0-20250108-11:31:47-12720
attr configname RoutedWlans
attr datetime 20250108-11:31:47
attr datetimef 20250108-113147
attr experiment RoutedWlans
attr inifile omnetpp.ini
attr iterationvars ""
attr iterationvarsd ""
attr iterationvarsf ""
attr measurement ""
attr network MultiRadio
attr processid 12720
attr repetition 0
attr replication #0
attr resultdir results
attr runnumber 0
attr seedset 0
config **.param-recording false
config image-path /home/levy/workspace/inet/images
config output-scalar-file results/omnetpp.ini-RoutedWlans-#0.sca
config output-vector-file results/omnetpp.ini-RoutedWlans-#0.vec
config sim-time-limit 100s
config sim-time-limit 100s
config description "Two WLANs connected via a router with two wireless NICs"
config *.useEthernetSwitching false
config *.useRouting true
config *.router*.mobility.initialX 250m
config *.router*.mobility.initialY 200m
config *.router*.numWlanInterfaces 2
config *.router*.wlan[0].mgmt.accessPointAddress "\"001111111111\""
config *.router*.wlan[0].radio.channelNumber 0
config *.router*.wlan[1].mgmt.accessPointAddress "\"002222222222\""
config *.router*.wlan[1].radio.channelNumber 1
config *.router*.**.mgmt.typename Ieee80211MgmtStaSimplified
config *.router*.**.agent.typename ""
config network MultiRadio
config **.constraintAreaMinX 0m
config **.constraintAreaMinY 0m
config **.constraintAreaMinZ 0m
config **.constraintAreaMaxX 500m
config **.constraintAreaMaxY 300m
config **.constraintAreaMaxZ 0m
config *.*.mobility.typename StationaryMobility
config *.host1.mobility.initialX 50m
config *.host1.mobility.initialY 100m
config *.host2.mobility.initialX 450m
config *.host2.mobility.initialY 100m
config *.accessPoint1.mobility.initialX 150m
config *.accessPoint1.mobility.initialY 250m
config *.accessPoint2.mobility.initialX 350m
config *.accessPoint2.mobility.initialY 250m
config **.analogModel.ignorePartialInterference true
config *.accessPoint1.wlan[0].address "\"001111111111\""
config *.accessPoint1.wlan[0].mgmt.ssid "\"alpha\""
config *.accessPoint1.wlan[0].radio.channelNumber 0
config *.accessPoint2.wlan[0].address "\"002222222222\""
config *.accessPoint2.wlan[0].radio.channelNumber 1
config *.accessPoint2.wlan[0].mgmt.ssid "\"beta\""
config *.host1.wlan[0].mgmt.accessPointAddress "\"001111111111\""
config *.host1.wlan[0].radio.channelNumber 0
config *.host2.wlan[0].mgmt.accessPointAddress "\"002222222222\""
config *.host2.wlan[0].radio.channelNumber 1
config *.host*.**.mgmt.typename Ieee80211MgmtStaSimplified
config *.host*.**.agent.typename ""
config *.accessPoint*.**.mgmt.typename Ieee80211MgmtApSimplified
config **.wlan*.bitrate 11Mbps
config **.host*.numApps 1
config **.app[0].typename PingApp
config *.host1.app[0].destAddr "\"host2\""
config **.printPing true
config *.useEthernetSwitching false
config *.useRouting true
config *.configurator.config "xmldoc(\"network.xml\")"

scalar MultiRadio.radioMedium.propagation "Arrival computation count" 8070
scalar MultiRadio.radioMedium "transmission count" 1614
scalar MultiRadio.radioMedium "signal send count" 8070
scalar MultiRadio.radioMedium "reception computation count" 8070
scalar MultiRadio.radioMedium "interference computation count" 24436
scalar MultiRadio.radioMedium "reception decision computation count" 3228
scalar MultiRadio.radioMedium "listening decision computation count" 13338
scalar MultiRadio.radioMedium "reception cache hit" 81.303864331387
scalar MultiRadio.radioMedium "interference cache hit" 66.666666666667
scalar MultiRadio.radioMedium "noise cache hit" 0
scalar MultiRadio.radioMedium "snir cache hit" 50
scalar MultiRadio.radioMedium "reception decision cache hit" 50
scalar MultiRadio.radioMedium "reception result cache hit" 0
scalar MultiRadio.host1.lo[0].lo rcvdPkFromHl:count 0
scalar MultiRadio.host1.lo[0].lo rcvdPkFromHl:sum(packetBytes) 0
scalar MultiRadio.host1.lo[0].lo passedUpPk:count 0
scalar MultiRadio.host1.lo[0].lo passedUpPk:sum(packetBytes) 0
scalar MultiRadio.host1.lo[0] packetDropInterfaceDown:count 0
scalar MultiRadio.host1.lo[0] packetDropInterfaceDown:sum(packetBytes) 0
scalar MultiRadio.host1.lo[0] packetDropNoCarrier:count 0
scalar MultiRadio.host1.lo[0] packetDropNoCarrier:sum(packetBytes) 0
scalar MultiRadio.host1.wlan[0].mac.dcf.channelAccess.pendingQueue queueLength:last 0
scalar MultiRadio.host1.wlan[0].mac.dcf.channelAccess.pendingQueue queueLength:max 1
scalar MultiRadio.host1.wlan[0].mac.dcf.channelAccess.pendingQueue queueLength:timeavg 6.23e-06
scalar MultiRadio.host1.wlan[0].mac.dcf.channelAccess.pendingQueue queueBitLength:last 0
scalar MultiRadio.host1.wlan[0].mac.dcf.channelAccess.pendingQueue queueBitLength:max 960
scalar MultiRadio.host1.wlan[0].mac.dcf.channelAccess.pendingQueue queueBitLength:timeavg 0.0059808
scalar MultiRadio.host1.wlan[0].mac.dcf.channelAccess.pendingQueue outgoingPackets:count 101
scalar MultiRadio.host1.wlan[0].mac.dcf.channelAccess.pendingQueue outgoingPacketLengths:sum 96512
scalar MultiRadio.host1.wlan[0].mac.dcf.channelAccess.pendingQueue incomingPackets:count 101
scalar MultiRadio.host1.wlan[0].mac.dcf.channelAccess.pendingQueue incomingPacketLengths:sum 96512
scalar MultiRadio.host1.wlan[0].mac.dcf.channelAccess.pendingQueue droppedPacketsQueueOverflow:count 0
scalar MultiRadio.host1.wlan[0].mac.dcf.channelAccess.pendingQueue droppedPacketLengthsQueueOverflow:sum 0
scalar MultiRadio.host1.wlan[0].mac.dcf.channelAccess.inProgressFrames queueLength:max 1
scalar MultiRadio.host1.wlan[0].mac.dcf.channelAccess.inProgressFrames queueLength:timeavg 0.00049834635978
scalar MultiRadio.host1.wlan[0].mac.dcf.channelAccess.contention channelAccessGranted:count 101
scalar MultiRadio.host1.wlan[0].mac.dcf.channelAccess.contention stateChanged:count 3230
scalar MultiRadio.host1.wlan[0].mac.dcf.channelAccess channelOwnershipChanged:count 202
scalar MultiRadio.host1.wlan[0].mac.dcf.originatorMacDataService packetAggregated:count 0
scalar MultiRadio.host1.wlan[0].mac.dcf.originatorMacDataService packetFragmented:count 0
scalar MultiRadio.host1.wlan[0].mac.dcf.recipientMacDataService packetDeaggregated:count 0
scalar MultiRadio.host1.wlan[0].mac.dcf.recipientMacDataService packetDefragmented:count 101
scalar MultiRadio.host1.wlan[0].mac.dcf.recipientMacDataService packetDropDuplicateDetected:count 0
scalar MultiRadio.host1.wlan[0].mac.dcf.recipientMacDataService packetDropDuplicateDetected:sum(packetBytes) 0
scalar MultiRadio.host1.wlan[0].mac.dcf.recoveryProcedure retryLimitReached:count 0
scalar MultiRadio.host1.wlan[0].mac.dcf frameSequenceFinished:count 101
scalar MultiRadio.host1.wlan[0].mac.dcf packetReceivedFromPeer:count 202
scalar MultiRadio.host1.wlan[0].mac.dcf packetReceivedFromPeer:sum(packetBytes) 13478
scalar MultiRadio.host1.wlan[0].mac.dcf packetReceivedFromPeerUnicast:count 202
scalar MultiRadio.host1.wlan[0].mac.dcf packetReceivedFromPeerUnicast:sum(packetBytes) 13478
scalar MultiRadio.host1.wlan[0].mac.dcf packetReceivedFromPeerMulticast:count 0
scalar MultiRadio.host1.wlan[0].mac.dcf packetReceivedFromPeerMulticast:sum(packetBytes) 0
scalar MultiRadio.host1.wlan[0].mac.dcf packetReceivedFromPeerBroadcast:count 0
scalar MultiRadio.host1.wlan[0].mac.dcf packetReceivedFromPeerBroadcast:sum(packetBytes) 0
scalar MultiRadio.host1.wlan[0].mac.dcf packetReceivedFromPeerWithRetry:count 0
scalar MultiRadio.host1.wlan[0].mac.dcf packetReceivedFromPeerWithRetry:sum(packetBytes) 0
scalar MultiRadio.host1.wlan[0].mac.dcf packetReceivedFromPeerWithoutRetry:count 202
scalar MultiRadio.host1.wlan[0].mac.dcf packetReceivedFromPeerWithoutRetry:sum(packetBytes) 13478
scalar MultiRadio.host1.wlan[0].mac.dcf packetSentToPeer:count 202
scalar MultiRadio.host1.wlan[0].mac.dcf packetSentToPeer:sum(packetBytes) 13478
scalar MultiRadio.host1.wlan[0].mac.dcf packetSentToPeerUnicast:count 202
scalar MultiRadio.host1.wlan[0].mac.dcf packetSentToPeerUnicast:sum(packetBytes) 13478
scalar MultiRadio.host1.wlan[0].mac.dcf packetSentToPeerMulticast:count 0
scalar MultiRadio.host1.wlan[0].mac.dcf packetSentToPeerMulticast:sum(packetBytes) 0
scalar MultiRadio.host1.wlan[0].mac.dcf packetSentToPeerBroadcast:count 0
scalar MultiRadio.host1.wlan[0].mac.dcf packetSentToPeerBroadcast:sum(packetBytes) 0
scalar MultiRadio.host1.wlan[0].mac.dcf packetSentToPeerWithRetry:count 0
scalar MultiRadio.host1.wlan[0].mac.dcf packetSentToPeerWithRetry:sum(packetBytes) 0
scalar MultiRadio.host1.wlan[0].mac.dcf packetSentToPeerWithoutRetry:count 202
scalar MultiRadio.host1.wlan[0].mac.dcf packetSentToPeerWithoutRetry:sum(packetBytes) 13478
scalar MultiRadio.host1.wlan[0].mac.dcf packetDrop:count 403
scalar MultiRadio.host1.wlan[0].mac.dcf packetDrop:sum(packetBytes) 26942
scalar MultiRadio.host1.wlan[0].mac.dcf packetDropNotAddressedToUs:count 403
scalar MultiRadio.host1.wlan[0].mac.dcf packetDropNotAddressedToUs:sum(packetBytes) 26942
scalar MultiRadio.host1.wlan[0].mac.dcf packetDropQueueOverflow:count 0
scalar MultiRadio.host1.wlan[0].mac.dcf packetDropQueueOverflow:sum(packetBytes) 0
scalar MultiRadio.host1.wlan[0].mac.dcf packetDropRetryLimitReached:count 0
scalar MultiRadio.host1.wlan[0].mac.dcf packetDropRetryLimitReached:sum(packetBytes) 0
scalar MultiRadio.host1.wlan[0].mac.dcf linkBroken:count 0
scalar MultiRadio.host1.wlan[0].mac packetReceivedFromLower:count 605
scalar MultiRadio.host1.wlan[0].mac packetReceivedFromLower:sum(packetBytes) 40420
scalar MultiRadio.host1.wlan[0].mac packetSentToLower:count 202
scalar MultiRadio.host1.wlan[0].mac packetSentToLower:sum(packetBytes) 13478
scalar MultiRadio.host1.wlan[0].mac packetReceivedFromUpper:count 101
scalar MultiRadio.host1.wlan[0].mac packetReceivedFromUpper:sum(packetBytes) 9236
scalar MultiRadio.host1.wlan[0].mac packetSentToUpper:count 101
scalar MultiRadio.host1.wlan[0].mac packetSentToUpper:sum(packetBytes) 9236
scalar MultiRadio.host1.wlan[0].mac packetDrop:count 403
scalar MultiRadio.host1.wlan[0].mac packetDrop:sum(packetBytes) 26942
scalar MultiRadio.host1.wlan[0].mac packetDropIncorrectlyReceived:count 0
scalar MultiRadio.host1.wlan[0].mac packetDropIncorrectlyReceived:sum(packetBytes) 0
scalar MultiRadio.host1.wlan[0].mac packetDropNotAddressedToUs:count 403
scalar MultiRadio.host1.wlan[0].mac packetDropNotAddressedToUs:sum(packetBytes) 26942
scalar MultiRadio.host1.wlan[0].mac packetDropQueueOverflow:count 0
scalar MultiRadio.host1.wlan[0].mac packetDropQueueOverflow:sum(packetBytes) 0
scalar MultiRadio.host1.wlan[0].mac packetDropRetryLimitReached:count 0
scalar MultiRadio.host1.wlan[0].mac packetDropRetryLimitReached:sum(packetBytes) 0
scalar MultiRadio.host1.wlan[0].mac packetDropDuplicateDetected:count 0
scalar MultiRadio.host1.wlan[0].mac packetDropDuplicateDetected:sum(packetBytes) 0
scalar MultiRadio.host1.wlan[0].mac packetDropOther:count 0
scalar MultiRadio.host1.wlan[0].mac packetDropOther:sum(packetBytes) 0
scalar MultiRadio.host1.wlan[0].mac linkBroken:count 0
scalar MultiRadio.host1.wlan[0].radio radioMode:count 407
scalar MultiRadio.host1.wlan[0].radio receptionState:count 1615
scalar MultiRadio.host1.wlan[0].radio transmissionState:count 808
scalar MultiRadio.host1.wlan[0] packetDropInterfaceDown:count 0
scalar MultiRadio.host1.wlan[0] packetDropInterfaceDown:sum(packetBytes) 0
scalar MultiRadio.host1.wlan[0] packetDropNoCarrier:count 0
scalar MultiRadio.host1.wlan[0] packetDropNoCarrier:sum(packetBytes) 0
scalar MultiRadio.host1.ipv4.ip packetDropAddressResolutionFailed:count 0
scalar MultiRadio.host1.ipv4.ip packetDropAddressResolutionFailed:sum(packetBytes) 0
scalar MultiRadio.host1.ipv4.ip packetDropHopLimitReached:count 0
scalar MultiRadio.host1.ipv4.ip packetDropHopLimitReached:sum(packetBytes) 0
scalar MultiRadio.host1.ipv4.ip packetDropForwardingDisabled:count 0
scalar MultiRadio.host1.ipv4.ip packetDropForwardingDisabled:sum(packetBytes) 0
scalar MultiRadio.host1.ipv4.ip packetDropLifetimeExpired:count 0
scalar MultiRadio.host1.ipv4.ip packetDropLifetimeExpired:sum(packetBytes) 0
scalar MultiRadio.host1.ipv4.ip packetDropNoInterfaceFound:count 0
scalar MultiRadio.host1.ipv4.ip packetDropNoInterfaceFound:sum(packetBytes) 0
scalar MultiRadio.host1.ipv4.ip packetDropNoRouteFound:count 0
scalar MultiRadio.host1.ipv4.ip packetDropNoRouteFound:sum(packetBytes) 0
scalar MultiRadio.host1.ipv4.ip packetDropUndefined:count 0
scalar MultiRadio.host1.ipv4.ip packetDropUndefined:sum(packetBytes) 0
scalar MultiRadio.host1.ipv4.arp arpResolutionFailed:count 0
scalar MultiRadio.host1.ipv4.arp arpResolutionCompleted:count 1
scalar MultiRadio.host1.ipv4.arp arpResolutionInitiated:count 1
scalar MultiRadio.host1.ipv4.arp arpReplySent:count 0
scalar MultiRadio.host1.ipv4.arp arpReplySent:sum(packetBytes) 0
scalar MultiRadio.host1.ipv4.arp arpRequestSent:count 1
scalar MultiRadio.host1.ipv4.arp arpRequestSent:sum(packetBytes) 28
scalar MultiRadio.host1.udp packetReceived:count 0
scalar MultiRadio.host1.udp packetReceived:sum(packetBytes) 0
scalar MultiRadio.host1.udp packetSent:count 0
scalar MultiRadio.host1.udp packetSent:sum(packetBytes) 0
scalar MultiRadio.host1.udp passedUpPk:count 0
scalar MultiRadio.host1.udp droppedPkWrongPort:count 0
scalar MultiRadio.host1.udp droppedPkBadChecksum:count 0
scalar MultiRadio.host1.app[0] "Pings sent" 100
scalar MultiRadio.host1.app[0] "ping loss rate (%)" 0
scalar MultiRadio.host1.app[0] "ping out-of-order rate (%)" 0
scalar MultiRadio.host1.app[0] pingRxSeq:count 100
scalar MultiRadio.host1.app[0] pingTxSeq:count 100
scalar MultiRadio.host1.app[0] numOutOfOrderArrivals:last nan
scalar MultiRadio.host1.app[0] numLost:last nan
scalar MultiRadio.host2.lo[0].lo rcvdPkFromHl:count 0
scalar MultiRadio.host2.lo[0].lo rcvdPkFromHl:sum(packetBytes) 0
scalar MultiRadio.host2.lo[0].lo passedUpPk:count 0
scalar MultiRadio.host2.lo[0].lo passedUpPk:sum(packetBytes) 0
scalar MultiRadio.host2.lo[0] packetDropInterfaceDown:count 0
scalar MultiRadio.host2.lo[0] packetDropInterfaceDown:sum(packetBytes) 0
scalar MultiRadio.host2.lo[0] packetDropNoCarrier:count 0
scalar MultiRadio.host2.lo[0] packetDropNoCarrier:sum(packetBytes) 0
scalar MultiRadio.host2.wlan[0].mac.dcf.channelAccess.pendingQueue queueLength:last 0
scalar MultiRadio.host2.wlan[0].mac.dcf.channelAccess.pendingQueue queueLength:max 1
scalar MultiRadio.host2.wlan[0].mac.dcf.channelAccess.pendingQueue queueLength:timeavg 0.0005795
scalar MultiRadio.host2.wlan[0].mac.dcf.channelAccess.pendingQueue queueBitLength:last 0
scalar MultiRadio.host2.wlan[0].mac.dcf.channelAccess.pendingQueue queueBitLength:max 960
scalar MultiRadio.host2.wlan[0].mac.dcf.channelAccess.pendingQueue queueBitLength:timeavg 0.5539456
scalar MultiRadio.host2.wlan[0].mac.dcf.channelAccess.pendingQueue outgoingPackets:count 101
scalar MultiRadio.host2.wlan[0].mac.dcf.channelAccess.pendingQueue outgoingPacketLengths:sum 96512
scalar MultiRadio.host2.wlan[0].mac.dcf.channelAccess.pendingQueue incomingPackets:count 101
scalar MultiRadio.host2.wlan[0].mac.dcf.channelAccess.pendingQueue incomingPacketLengths:sum 96512
scalar MultiRadio.host2.wlan[0].mac.dcf.channelAccess.pendingQueue droppedPacketsQueueOverflow:count 0
scalar MultiRadio.host2.wlan[0].mac.dcf.channelAccess.pendingQueue droppedPacketLengthsQueueOverflow:sum 0
scalar MultiRadio.host2.wlan[0].mac.dcf.channelAccess.inProgressFrames queueLength:max 1
scalar MultiRadio.host2.wlan[0].mac.dcf.channelAccess.inProgressFrames queueLength:timeavg 0.00049849214116
scalar MultiRadio.host2.wlan[0].mac.dcf.channelAccess.contention channelAccessGranted:count 101
scalar MultiRadio.host2.wlan[0].mac.dcf.channelAccess.contention stateChanged:count 3230
scalar MultiRadio.host2.wlan[0].mac.dcf.channelAccess channelOwnershipChanged:count 202
scalar MultiRadio.host2.wlan[0].mac.dcf.originatorMacDataService packetAggregated:count 0
scalar MultiRadio.host2.wlan[0].mac.dcf.originatorMacDataService packetFragmented:count 0
scalar MultiRadio.host2.wlan[0].mac.dcf.recipientMacDataService packetDeaggregated:count 0
scalar MultiRadio.host2.wlan[0].mac.dcf.recipientMacDataService packetDefragmented:count 101
scalar MultiRadio.host2.wlan[0].mac.dcf.recipientMacDataService packetDropDuplicateDetected:count 0
scalar MultiRadio.host2.wlan[0].mac.dcf.recipientMacDataService packetDropDuplicateDetected:sum(packetBytes) 0
scalar MultiRadio.host2.wlan[0].mac.dcf.recoveryProcedure retryLimitReached:count 0
scalar MultiRadio.host2.wlan[0].mac.dcf frameSequenceFinished:count 101
scalar MultiRadio.host2.wlan[0].mac.dcf packetReceivedFromPeer:count 202
scalar MultiRadio.host2.wlan[0].mac.dcf packetReceivedFromPeer:sum(packetBytes) 13478
scalar MultiRadio.host2.wlan[0].mac.dcf packetReceivedFromPeerUnicast:count 201
scalar MultiRadio.host2.wlan[0].mac.dcf packetReceivedFromPeerUnicast:sum(packetBytes) 13414
scalar MultiRadio.host2.wlan[0].mac.dcf packetReceivedFromPeerMulticast:count 1
scalar MultiRadio.host2.wlan[0].mac.dcf packetReceivedFromPeerMulticast:sum(packetBytes) 64
scalar MultiRadio.host2.wlan[0].mac.dcf packetReceivedFromPeerBroadcast:count 1
scalar MultiRadio.host2.wlan[0].mac.dcf packetReceivedFromPeerBroadcast:sum(packetBytes) 64
scalar MultiRadio.host2.wlan[0].mac.dcf packetReceivedFromPeerWithRetry:count 0
scalar MultiRadio.host2.wlan[0].mac.dcf packetReceivedFromPeerWithRetry:sum(packetBytes) 0
scalar MultiRadio.host2.wlan[0].mac.dcf packetReceivedFromPeerWithoutRetry:count 202
scalar MultiRadio.host2.wlan[0].mac.dcf packetReceivedFromPeerWithoutRetry:sum(packetBytes) 13478
scalar MultiRadio.host2.wlan[0].mac.dcf packetSentToPeer:count 201
scalar MultiRadio.host2.wlan[0].mac.dcf packetSentToPeer:sum(packetBytes) 13464
scalar MultiRadio.host2.wlan[0].mac.dcf packetSentToPeerUnicast:count 201
scalar MultiRadio.host2.wlan[0].mac.dcf packetSentToPeerUnicast:sum(packetBytes) 13464
scalar MultiRadio.host2.wlan[0].mac.dcf packetSentToPeerMulticast:count 0
scalar MultiRadio.host2.wlan[0].mac.dcf packetSentToPeerMulticast:sum(packetBytes) 0
scalar MultiRadio.host2.wlan[0].mac.dcf packetSentToPeerBroadcast:count 0
scalar MultiRadio.host2.wlan[0].mac.dcf packetSentToPeerBroadcast:sum(packetBytes) 0
scalar MultiRadio.host2.wlan[0].mac.dcf packetSentToPeerWithRetry:count 0
scalar MultiRadio.host2.wlan[0].mac.dcf packetSentToPeerWithRetry:sum(packetBytes) 0
scalar MultiRadio.host2.wlan[0].mac.dcf packetSentToPeerWithoutRetry:count 201
scalar MultiRadio.host2.wlan[0].mac.dcf packetSentToPeerWithoutRetry:sum(packetBytes) 13464
scalar MultiRadio.host2.wlan[0].mac.dcf packetDrop:count 404
scalar MultiRadio.host2.wlan[0].mac.dcf packetDrop:sum(packetBytes) 26956
scalar MultiRadio.host2.wlan[0].mac.dcf packetDropNotAddressedToUs:count 404
scalar MultiRadio.host2.wlan[0].mac.dcf packetDropNotAddressedToUs:sum(packetBytes) 26956
scalar MultiRadio.host2.wlan[0].mac.dcf packetDropQueueOverflow:count 0
scalar MultiRadio.host2.wlan[0].mac.dcf packetDropQueueOverflow:sum(packetBytes) 0
scalar MultiRadio.host2.wlan[0].mac.dcf packetDropRetryLimitReached:count 0
scalar MultiRadio.host2.wlan[0].mac.dcf packetDropRetryLimitReached:sum(packetBytes) 0
scalar MultiRadio.host2.wlan[0].mac.dcf linkBroken:count 0
scalar MultiRadio.host2.wlan[0].mac packetReceivedFromLower:count 606
scalar MultiRadio.host2.wlan[0].mac packetReceivedFromLower:sum(packetBytes) 40434
scalar MultiRadio.host2.wlan[0].mac packetSentToLower:count 201
scalar MultiRadio.host2.wlan[0].mac packetSentToLower:sum(packetBytes) 13464
scalar MultiRadio.host2.wlan[0].mac packetReceivedFromUpper:count 101
scalar MultiRadio.host2.wlan[0].mac packetReceivedFromUpper:sum(packetBytes) 9236
scalar MultiRadio.host2.wlan[0].mac packetSentToUpper:count 101
scalar MultiRadio.host2.wlan[0].mac packetSentToUpper:sum(packetBytes) 9236
scalar MultiRadio.host2.wlan[0].mac packetDrop:count 404
scalar MultiRadio.host2.wlan[0].mac packetDrop:sum(packetBytes) 26956
scalar MultiRadio.host2.wlan[0].mac packetDropIncorrectlyReceived:count 0
scalar MultiRadio.host2.wlan[0].mac packetDropIncorrectlyReceived:sum(packetBytes) 0
scalar MultiRadio.host2.wlan[0].mac packetDropNotAddressedToUs:count 404
scalar MultiRadio.host2.wlan[0].mac packetDropNotAddressedToUs:sum(packetBytes) 26956
scalar MultiRadio.host2.wlan[0].mac packetDropQueueOverflow:count 0
scalar MultiRadio.host2.wlan[0].mac packetDropQueueOverflow:sum(packetBytes) 0
scalar MultiRadio.host2.wlan[0].mac packetDropRetryLimitReached:count 0
scalar MultiRadio.host2.wlan[0].mac packetDropRetryLimitReached:sum(packetBytes) 0
scalar MultiRadio.host2.wlan[0].mac packetDropDuplicateDetected:count 0
scalar MultiRadio.host2.wlan[0].mac packetDropDuplicateDetected:sum(packetBytes) 0
scalar MultiRadio.host2.wlan[0].mac packetDropOther:count 0
scalar MultiRadio.host2.wlan[0].mac packetDropOther:sum(packetBytes) 0
scalar MultiRadio.host2.wlan[0].mac linkBroken:count 0
scalar MultiRadio.host2.wlan[0].radio radioMode:count 405
scalar MultiRadio.host2.wlan[0].radio receptionState:count 1615
scalar MultiRadio.host2.wlan[0].radio transmissionState:count 804
scalar MultiRadio.host2.wlan[0] packetDropInterfaceDown:count 0
scalar MultiRadio.host2.wlan[0] packetDropInterfaceDown:sum(packetBytes) 0
scalar MultiRadio.host2.wlan[0] packetDropNoCarrier:count 0
scalar MultiRadio.host2.wlan[0] packetDropNoCarrier:sum(packetBytes) 0
scalar MultiRadio.host2.ipv4.ip packetDropAddressResolutionFailed:count 0
scalar MultiRadio.host2.ipv4.ip packetDropAddressResolutionFailed:sum(packetBytes) 0
scalar MultiRadio.host2.ipv4.ip packetDropHopLimitReached:count 0
scalar MultiRadio.host2.ipv4.ip packetDropHopLimitReached:sum(packetBytes) 0
scalar MultiRadio.host2.ipv4.ip packetDropForwardingDisabled:count 0
scalar MultiRadio.host2.ipv4.ip packetDropForwardingDisabled:sum(packetBytes) 0
scalar MultiRadio.host2.ipv4.ip packetDropLifetimeExpired:count 0
scalar MultiRadio.host2.ipv4.ip packetDropLifetimeExpired:sum(packetBytes) 0
scalar MultiRadio.host2.ipv4.ip packetDropNoInterfaceFound:count 0
scalar MultiRadio.host2.ipv4.ip packetDropNoInterfaceFound:sum(packetBytes) 0
scalar MultiRadio.host2.ipv4.ip packetDropNoRouteFound:count 0
scalar MultiRadio.host2.ipv4.ip packetDropNoRouteFound:sum(packetBytes) 0
scalar MultiRadio.host2.ipv4.ip packetDropUndefined:count 0
scalar MultiRadio.host2.ipv4.ip packetDropUndefined:sum(packetBytes) 0
scalar MultiRadio.host2.ipv4.arp arpResolutionFailed:count 0
scalar MultiRadio.host2.ipv4.arp arpResolutionCompleted:count 1
scalar MultiRadio.host2.ipv4.arp arpResolutionInitiated:count 0
scalar MultiRadio.host2.ipv4.arp arpReplySent:count 1
scalar MultiRadio.host2.ipv4.arp arpReplySent:sum(packetBytes) 28
scalar MultiRadio.host2.ipv4.arp arpRequestSent:count 0
scalar MultiRadio.host2.ipv4.arp arpRequestSent:sum(packetBytes) 0
scalar MultiRadio.host2.udp packetReceived:count 0
scalar MultiRadio.host2.udp packetReceived:sum(packetBytes) 0
scalar MultiRadio.host2.udp packetSent:count 0
scalar MultiRadio.host2.udp packetSent:sum(packetBytes) 0
scalar MultiRadio.host2.udp passedUpPk:count 0
scalar MultiRadio.host2.udp droppedPkWrongPort:count 0
scalar MultiRadio.host2.udp droppedPkBadChecksum:count 0
scalar MultiRadio.host2.app[0] pingRxSeq:count 0
scalar MultiRadio.host2.app[0] pingTxSeq:count 0
scalar MultiRadio.host2.app[0] numOutOfOrderArrivals:last nan
scalar MultiRadio.host2.app[0] numLost:last nan
scalar MultiRadio.accessPoint1.wlan[0].mac.dcf.channelAccess.pendingQueue queueLength:last 0
scalar MultiRadio.accessPoint1.wlan[0].mac.dcf.channelAccess.pendingQueue queueLength:max 1
scalar MultiRadio.accessPoint1.wlan[0].mac.dcf.channelAccess.pendingQueue queueLength:timeavg 0.00112906
scalar MultiRadio.accessPoint1.wlan[0].mac.dcf.channelAccess.pendingQueue queueBitLength:last 0
scalar MultiRadio.accessPoint1.wlan[0].mac.dcf.channelAccess.pendingQueue queueBitLength:max 960
scalar MultiRadio.accessPoint1.wlan[0].mac.dcf.channelAccess.pendingQueue queueBitLength:timeavg 1.07885312
scalar MultiRadio.accessPoint1.wlan[0].mac.dcf.channelAccess.pendingQueue outgoingPackets:count 202
scalar MultiRadio.accessPoint1.wlan[0].mac.dcf.channelAccess.pendingQueue outgoingPacketLengths:sum 193024
scalar MultiRadio.accessPoint1.wlan[0].mac.dcf.channelAccess.pendingQueue incomingPackets:count 202
scalar MultiRadio.accessPoint1.wlan[0].mac.dcf.channelAccess.pendingQueue incomingPacketLengths:sum 193024
scalar MultiRadio.accessPoint1.wlan[0].mac.dcf.channelAccess.pendingQueue droppedPacketsQueueOverflow:count 0
scalar MultiRadio.accessPoint1.wlan[0].mac.dcf.channelAccess.pendingQueue droppedPacketLengthsQueueOverflow:sum 0
scalar MultiRadio.accessPoint1.wlan[0].mac.dcf.channelAccess.inProgressFrames queueLength:max 1
scalar MultiRadio.accessPoint1.wlan[0].mac.dcf.channelAccess.inProgressFrames queueLength:timeavg 0.00099457455578
scalar MultiRadio.accessPoint1.wlan[0].mac.dcf.channelAccess.contention channelAccessGranted:count 202
scalar MultiRadio.accessPoint1.wlan[0].mac.dcf.channelAccess.contention stateChanged:count 3234
scalar MultiRadio.accessPoint1.wlan[0].mac.dcf.channelAccess channelOwnershipChanged:count 404
scalar MultiRadio.accessPoint1.wlan[0].mac.dcf.originatorMacDataService packetAggregated:count 0
scalar MultiRadio.accessPoint1.wlan[0].mac.dcf.originatorMacDataService packetFragmented:count 0
scalar MultiRadio.accessPoint1.wlan[0].mac.dcf.recipientMacDataService packetDeaggregated:count 0
scalar MultiRadio.accessPoint1.wlan[0].mac.dcf.recipientMacDataService packetDefragmented:count 202
scalar MultiRadio.accessPoint1.wlan[0].mac.dcf.recipientMacDataService packetDropDuplicateDetected:count 0
scalar MultiRadio.accessPoint1.wlan[0].mac.dcf.recipientMacDataService packetDropDuplicateDetected:sum(packetBytes) 0
scalar MultiRadio.accessPoint1.wlan[0].mac.dcf.recoveryProcedure retryLimitReached:count 0
scalar MultiRadio.accessPoint1.wlan[0].mac.dcf frameSequenceFinished:count 202
scalar MultiRadio.accessPoint1.wlan[0].mac.dcf packetReceivedFromPeer:count 403
scalar MultiRadio.accessPoint1.wlan[0].mac.dcf packetReceivedFromPeer:sum(packetBytes) 26942
scalar MultiRadio.accessPoint1.wlan[0].mac.dcf packetReceivedFromPeerUnicast:count 403
scalar MultiRadio.accessPoint1.wlan[0].mac.dcf packetReceivedFromPeerUnicast:sum(packetBytes) 26942
scalar MultiRadio.accessPoint1.wlan[0].mac.dcf packetReceivedFromPeerMulticast:count 0
scalar MultiRadio.accessPoint1.wlan[0].mac.dcf packetReceivedFromPeerMulticast:sum(packetBytes) 0
scalar MultiRadio.accessPoint1.wlan[0].mac.dcf packetReceivedFromPeerBroadcast:count 0
scalar MultiRadio.accessPoint1.wlan[0].mac.dcf packetReceivedFromPeerBroadcast:sum(packetBytes) 0
scalar MultiRadio.accessPoint1.wlan[0].mac.dcf packetReceivedFromPeerWithRetry:count 0
scalar MultiRadio.accessPoint1.wlan[0].mac.dcf packetReceivedFromPeerWithRetry:sum(packetBytes) 0
scalar MultiRadio.accessPoint1.wlan[0].mac.dcf packetReceivedFromPeerWithoutRetry:count 403
scalar MultiRadio.accessPoint1.wlan[0].mac.dcf packetReceivedFromPeerWithoutRetry:sum(packetBytes) 26942
scalar MultiRadio.accessPoint1.wlan[0].mac.dcf packetSentToPeer:count 404
scalar MultiRadio.accessPoint1.wlan[0].mac.dcf packetSentToPeer:sum(packetBytes) 26956
scalar MultiRadio.accessPoint1.wlan[0].mac.dcf packetSentToPeerUnicast:count 403
scalar MultiRadio.accessPoint1.wlan[0].mac.dcf packetSentToPeerUnicast:sum(packetBytes) 26892
scalar MultiRadio.accessPoint1.wlan[0].mac.dcf packetSentToPeerMulticast:count 1
scalar MultiRadio.accessPoint1.wlan[0].mac.dcf packetSentToPeerMulticast:sum(packetBytes) 64
scalar MultiRadio.accessPoint1.wlan[0].mac.dcf packetSentToPeerBroadcast:count 1
scalar MultiRadio.accessPoint1.wlan[0].mac.dcf packetSentToPeerBroadcast:sum(packetBytes) 64
scalar MultiRadio.accessPoint1.wlan[0].mac.dcf packetSentToPeerWithRetry:count 0
scalar MultiRadio.accessPoint1.wlan[0].mac.dcf packetSentToPeerWithRetry:sum(packetBytes) 0
scalar MultiRadio.accessPoint1.wlan[0].mac.dcf packetSentToPeerWithoutRetry:count 404
scalar MultiRadio.accessPoint1.wlan[0].mac.dcf packetSentToPeerWithoutRetry:sum(packetBytes) 26956
scalar MultiRadio.accessPoint1.wlan[0].mac.dcf packetDrop:count 0
scalar MultiRadio.accessPoint1.wlan[0].mac.dcf packetDrop:sum(packetBytes) 0
scalar MultiRadio.accessPoint1.wlan[0].mac.dcf packetDropNotAddressedToUs:count 0
scalar MultiRadio.accessPoint1.wlan[0].mac.dcf packetDropNotAddressedToUs:sum(packetBytes) 0
scalar MultiRadio.accessPoint1.wlan[0].mac.dcf packetDropQueueOverflow:count 0
scalar MultiRadio.accessPoint1.wlan[0].mac.dcf packetDropQueueOverflow:sum(packetBytes) 0
scalar MultiRadio.accessPoint1.wlan[0].mac.dcf packetDropRetryLimitReached:count 0
scalar MultiRadio.accessPoint1.wlan[0].mac.dcf packetDropRetryLimitReached:sum(packetBytes) 0
scalar MultiRadio.accessPoint1.wlan[0].mac.dcf linkBroken:count 0
scalar MultiRadio.accessPoint1.wlan[0].mac packetReceivedFromLower:count 403
scalar MultiRadio.accessPoint1.wlan[0].mac packetReceivedFromLower:sum(packetBytes) 26942
scalar MultiRadio.accessPoint1.wlan[0].mac packetSentToLower:count 404
scalar MultiRadio.accessPoint1.wlan[0].mac packetSentToLower:sum(packetBytes) 26956
scalar MultiRadio.accessPoint1.wlan[0].mac packetReceivedFromUpper:count 0
scalar MultiRadio.accessPoint1.wlan[0].mac packetReceivedFromUpper:sum(packetBytes) 0
scalar MultiRadio.accessPoint1.wlan[0].mac packetSentToUpper:count 1
scalar MultiRadio.accessPoint1.wlan[0].mac packetSentToUpper:sum(packetBytes) 36
scalar MultiRadio.accessPoint1.wlan[0].mac packetDrop:count 0
scalar MultiRadio.accessPoint1.wlan[0].mac packetDrop:sum(packetBytes) 0
scalar MultiRadio.accessPoint1.wlan[0].mac packetDropIncorrectlyReceived:count 0
scalar MultiRadio.accessPoint1.wlan[0].mac packetDropIncorrectlyReceived:sum(packetBytes) 0
scalar MultiRadio.accessPoint1.wlan[0].mac packetDropNotAddressedToUs:count 0
scalar MultiRadio.accessPoint1.wlan[0].mac packetDropNotAddressedToUs:sum(packetBytes) 0
scalar MultiRadio.accessPoint1.wlan[0].mac packetDropQueueOverflow:count 0
scalar MultiRadio.accessPoint1.wlan[0].mac packetDropQueueOverflow:sum(packetBytes) 0
scalar MultiRadio.accessPoint1.wlan[0].mac packetDropRetryLimitReached:count 0
scalar MultiRadio.accessPoint1.wlan[0].mac packetDropRetryLimitReached:sum(packetBytes) 0
scalar MultiRadio.accessPoint1.wlan[0].mac packetDropDuplicateDetected:count 0
scalar MultiRadio.accessPoint1.wlan[0].mac packetDropDuplicateDetected:sum(packetBytes) 0
scalar MultiRadio.accessPoint1.wlan[0].mac packetDropOther:count 0
scalar MultiRadio.accessPoint1.wlan[0].mac packetDropOther:sum(packetBytes) 0
scalar MultiRadio.accessPoint1.wlan[0].mac linkBroken:count 0
scalar MultiRadio.accessPoint1.wlan[0].radio radioMode:count 811
scalar MultiRadio.accessPoint1.wlan[0].radio receptionState:count 1615
scalar MultiRadio.accessPoint1.wlan[0].radio transmissionState:count 1616
scalar MultiRadio.accessPoint1.wlan[0] packetDropInterfaceDown:count 0
scalar MultiRadio.accessPoint1.wlan[0] packetDropInterfaceDown:sum(packetBytes) 0
scalar MultiRadio.accessPoint1.wlan[0] packetDropNoCarrier:count 0
scalar MultiRadio.accessPoint1.wlan[0] packetDropNoCarrier:sum(packetBytes) 0
scalar MultiRadio.accessPoint2.wlan[0].mac.dcf.channelAccess.pendingQueue queueLength:last 0
scalar MultiRadio.accessPoint2.wlan[0].mac.dcf.channelAccess.pendingQueue queueLength:max 1
scalar MultiRadio.accessPoint2.wlan[0].mac.dcf.channelAccess.pendingQueue queueLength:timeavg 0.00111246
scalar MultiRadio.accessPoint2.wlan[0].mac.dcf.channelAccess.pendingQueue queueBitLength:last 0
scalar MultiRadio.accessPoint2.wlan[0].mac.dcf.channelAccess.pendingQueue queueBitLength:max 960
scalar MultiRadio.accessPoint2.wlan[0].mac.dcf.channelAccess.pendingQueue queueBitLength:timeavg 1.06291712
scalar MultiRadio.accessPoint2.wlan[0].mac.dcf.channelAccess.pendingQueue outgoingPackets:count 202
scalar MultiRadio.accessPoint2.wlan[0].mac.dcf.channelAccess.pendingQueue outgoingPacketLengths:sum 193024
scalar MultiRadio.accessPoint2.wlan[0].mac.dcf.channelAccess.pendingQueue incomingPackets:count 202
scalar MultiRadio.accessPoint2.wlan[0].mac.dcf.channelAccess.pendingQueue incomingPacketLengths:sum 193024
scalar MultiRadio.accessPoint2.wlan[0].mac.dcf.channelAccess.pendingQueue droppedPacketsQueueOverflow:count 0
scalar MultiRadio.accessPoint2.wlan[0].mac.dcf.channelAccess.pendingQueue droppedPacketLengthsQueueOverflow:sum 0
scalar MultiRadio.accessPoint2.wlan[0].mac.dcf.channelAccess.inProgressFrames queueLength:max 1
scalar MultiRadio.accessPoint2.wlan[0].mac.dcf.channelAccess.inProgressFrames queueLength:timeavg 0.00099468561044
scalar MultiRadio.accessPoint2.wlan[0].mac.dcf.channelAccess.contention channelAccessGranted:count 202
scalar MultiRadio.accessPoint2.wlan[0].mac.dcf.channelAccess.contention stateChanged:count 3234
scalar MultiRadio.accessPoint2.wlan[0].mac.dcf.channelAccess channelOwnershipChanged:count 404
scalar MultiRadio.accessPoint2.wlan[0].mac.dcf.originatorMacDataService packetAggregated:count 0
scalar MultiRadio.accessPoint2.wlan[0].mac.dcf.originatorMacDataService packetFragmented:count 0
scalar MultiRadio.accessPoint2.wlan[0].mac.dcf.recipientMacDataService packetDeaggregated:count 0
scalar MultiRadio.accessPoint2.wlan[0].mac.dcf.recipientMacDataService packetDefragmented:count 202
scalar MultiRadio.accessPoint2.wlan[0].mac.dcf.recipientMacDataService packetDropDuplicateDetected:count 0
scalar MultiRadio.accessPoint2.wlan[0].mac.dcf.recipientMacDataService packetDropDuplicateDetected:sum(packetBytes) 0
scalar MultiRadio.accessPoint2.wlan[0].mac.dcf.recoveryProcedure retryLimitReached:count 0
scalar MultiRadio.accessPoint2.wlan[0].mac.dcf frameSequenceFinished:count 202
scalar MultiRadio.accessPoint2.wlan[0].mac.dcf packetReceivedFromPeer:count 403
scalar MultiRadio.accessPoint2.wlan[0].mac.dcf packetReceivedFromPeer:sum(packetBytes) 26942
scalar MultiRadio.accessPoint2.wlan[0].mac.dcf packetReceivedFromPeerUnicast:count 403
scalar MultiRadio.accessPoint2.wlan[0].mac.dcf packetReceivedFromPeerUnicast:sum(packetBytes) 26942
scalar MultiRadio.accessPoint2.wlan[0].mac.dcf packetReceivedFromPeerMulticast:count 0
scalar MultiRadio.accessPoint2.wlan[0].mac.dcf packetReceivedFromPeerMulticast:sum(packetBytes) 0
scalar MultiRadio.accessPoint2.wlan[0].mac.dcf packetReceivedFromPeerBroadcast:count 0
scalar MultiRadio.accessPoint2.wlan[0].mac.dcf packetReceivedFromPeerBroadcast:sum(packetBytes) 0
scalar MultiRadio.accessPoint2.wlan[0].mac.dcf packetReceivedFromPeerWithRetry:count 0
scalar MultiRadio.accessPoint2.wlan[0].mac.dcf packetReceivedFromPeerWithRetry:sum(packetBytes) 0
scalar MultiRadio.accessPoint2.wlan[0].mac.dcf packetReceivedFromPeerWithoutRetry:count 403
scalar MultiRadio.accessPoint2.wlan[0].mac.dcf packetReceivedFromPeerWithoutRetry:sum(packetBytes) 26942
scalar MultiRadio.accessPoint2.wlan[0].mac.dcf packetSentToPeer:count 404
scalar MultiRadio.accessPoint2.wlan[0].mac.dcf packetSentToPeer:sum(packetBytes) 26956
scalar MultiRadio.accessPoint2.wlan[0].mac.dcf packetSentToPeerUnicast:count 403
scalar MultiRadio.accessPoint2.wlan[0].mac.dcf packetSentToPeerUnicast:sum(packetBytes) 26892
scalar MultiRadio.accessPoint2.wlan[0].mac.dcf packetSentToPeerMulticast:count 1
scalar MultiRadio.accessPoint2.wlan[0].mac.dcf packetSentToPeerMulticast:sum(packetBytes) 64
scalar MultiRadio.accessPoint2.wlan[0].mac.dcf packetSentToPeerBroadcast:count 1
scalar MultiRadio.accessPoint2.wlan[0].mac.dcf packetSentToPeerBroadcast:sum(packetBytes) 64
scalar MultiRadio.accessPoint2.wlan[0].mac.dcf packetSentToPeerWithRetry:count 0
scalar MultiRadio.accessPoint2.wlan[0].mac.dcf packetSentToPeerWithRetry:sum(packetBytes) 0
scalar MultiRadio.accessPoint2.wlan[0].mac.dcf packetSentToPeerWithoutRetry:count 404
scalar MultiRadio.accessPoint2.wlan[0].mac.dcf packetSentToPeerWithoutRetry:sum(packetBytes) 26956
scalar MultiRadio.accessPoint2.wlan[0].mac.dcf packetDrop:count 0
scalar MultiRadio.accessPoint2.wlan[0].mac.dcf packetDrop:sum(packetBytes) 0
scalar MultiRadio.accessPoint2.wlan[0].mac.dcf packetDropNotAddressedToUs:count 0
scalar MultiRadio.accessPoint2.wlan[0].mac.dcf packetDropNotAddressedToUs:sum(packetBytes) 0
scalar MultiRadio.accessPoint2.wlan[0].mac.dcf packetDropQueueOverflow:count 0
scalar MultiRadio.accessPoint2.wlan[0].mac.dcf packetDropQueueOverflow:sum(packetBytes) 0
scalar MultiRadio.accessPoint2.wlan[0].mac.dcf packetDropRetryLimitReached:count 0
scalar MultiRadio.accessPoint2.wlan[0].mac.dcf packetDropRetryLimitReached:sum(packetBytes) 0
scalar MultiRadio.accessPoint2.wlan[0].mac.dcf linkBroken:count 0
scalar MultiRadio.accessPoint2.wlan[0].mac packetReceivedFromLower:count 403
scalar MultiRadio.accessPoint2.wlan[0].mac packetReceivedFromLower:sum(packetBytes) 26942
scalar MultiRadio.accessPoint2.wlan[0].mac packetSentToLower:count 404
scalar MultiRadio.accessPoint2.wlan[0].mac packetSentToLower:sum(packetBytes) 26956
scalar MultiRadio.accessPoint2.wlan[0].mac packetReceivedFromUpper:count 0
scalar MultiRadio.accessPoint2.wlan[0].mac packetReceivedFromUpper:sum(packetBytes) 0
scalar MultiRadio.accessPoint2.wlan[0].mac packetSentToUpper:count 1
scalar MultiRadio.accessPoint2.wlan[0].mac packetSentToUpper:sum(packetBytes) 36
scalar MultiRadio.accessPoint2.wlan[0].mac packetDrop:count 0
scalar MultiRadio.accessPoint2.wlan[0].mac packetDrop:sum(packetBytes) 0
scalar MultiRadio.accessPoint2.wlan[0].mac packetDropIncorrectlyReceived:count 0
scalar MultiRadio.accessPoint2.wlan[0].mac packetDropIncorrectlyReceived:sum(packetBytes) 0
scalar MultiRadio.accessPoint2.wlan[0].mac packetDropNotAddressedToUs:count 0
scalar MultiRadio.accessPoint2.wlan[0].mac packetDropNotAddressedToUs:sum(packetBytes) 0
scalar MultiRadio.accessPoint2.wlan[0].mac packetDropQueueOverflow:count 0
scalar MultiRadio.accessPoint2.wlan[0].mac packetDropQueueOverflow:sum(packetBytes) 0
scalar MultiRadio.accessPoint2.wlan[0].mac packetDropRetryLimitReached:count 0
scalar MultiRadio.accessPoint2.wlan[0].mac packetDropRetryLimitReached:sum(packetBytes) 0
scalar MultiRadio.accessPoint2.wlan[0].mac packetDropDuplicateDetected:count 0
scalar MultiRadio.accessPoint2.wlan[0].mac packetDropDuplicateDetected:sum(packetBytes) 0
scalar MultiRadio.accessPoint2.wlan[0].mac packetDropOther:count 0
scalar MultiRadio.accessPoint2.wlan[0].mac packetDropOther:sum(packetBytes) 0
scalar MultiRadio.accessPoint2.wlan[0].mac linkBroken:count 0
scalar MultiRadio.accessPoint2.wlan[0].radio radioMode:count 811
scalar MultiRadio.accessPoint2.wlan[0].radio receptionState:count 1615
scalar MultiRadio.accessPoint2.wlan[0].radio transmissionState:count 1616
scalar MultiRadio.accessPoint2.wlan[0] packetDropInterfaceDown:count 0
scalar MultiRadio.accessPoint2.wlan[0] packetDropInterfaceDown:sum(packetBytes) 0
scalar MultiRadio.accessPoint2.wlan[0] packetDropNoCarrier:count 0
scalar MultiRadio.accessPoint2.wlan[0] packetDropNoCarrier:sum(packetBytes) 0
scalar MultiRadio.router.lo[0].lo rcvdPkFromHl:count 0
scalar MultiRadio.router.lo[0].lo rcvdPkFromHl:sum(packetBytes) 0
scalar MultiRadio.router.lo[0].lo passedUpPk:count 0
scalar MultiRadio.router.lo[0].lo passedUpPk:sum(packetBytes) 0
scalar MultiRadio.router.lo[0] packetDropInterfaceDown:count 0
scalar MultiRadio.router.lo[0] packetDropInterfaceDown:sum(packetBytes) 0
scalar MultiRadio.router.lo[0] packetDropNoCarrier:count 0
scalar MultiRadio.router.lo[0] packetDropNoCarrier:sum(packetBytes) 0
scalar MultiRadio.router.wlan[0].mac.dcf.channelAccess.pendingQueue queueLength:last 0
scalar MultiRadio.router.wlan[0].mac.dcf.channelAccess.pendingQueue queueLength:max 1
scalar MultiRadio.router.wlan[0].mac.dcf.channelAccess.pendingQueue queueLength:timeavg 4.3e-06
scalar MultiRadio.router.wlan[0].mac.dcf.channelAccess.pendingQueue queueBitLength:last 0
scalar MultiRadio.router.wlan[0].mac.dcf.channelAccess.pendingQueue queueBitLength:max 960
scalar MultiRadio.router.wlan[0].mac.dcf.channelAccess.pendingQueue queueBitLength:timeavg 0.0022016
scalar MultiRadio.router.wlan[0].mac.dcf.channelAccess.pendingQueue outgoingPackets:count 101
scalar MultiRadio.router.wlan[0].mac.dcf.channelAccess.pendingQueue outgoingPacketLengths:sum 96512
scalar MultiRadio.router.wlan[0].mac.dcf.channelAccess.pendingQueue incomingPackets:count 101
scalar MultiRadio.router.wlan[0].mac.dcf.channelAccess.pendingQueue incomingPacketLengths:sum 96512
scalar MultiRadio.router.wlan[0].mac.dcf.channelAccess.pendingQueue droppedPacketsQueueOverflow:count 0
scalar MultiRadio.router.wlan[0].mac.dcf.channelAccess.pendingQueue droppedPacketLengthsQueueOverflow:sum 0
scalar MultiRadio.router.wlan[0].mac.dcf.channelAccess.inProgressFrames queueLength:max 1
scalar MultiRadio.router.wlan[0].mac.dcf.channelAccess.inProgressFrames queueLength:timeavg 0.00049836657796
scalar MultiRadio.router.wlan[0].mac.dcf.channelAccess.contention channelAccessGranted:count 101
scalar MultiRadio.router.wlan[0].mac.dcf.channelAccess.contention stateChanged:count 3230
scalar MultiRadio.router.wlan[0].mac.dcf.channelAccess channelOwnershipChanged:count 202
scalar MultiRadio.router.wlan[0].mac.dcf.originatorMacDataService packetAggregated:count 0
scalar MultiRadio.router.wlan[0].mac.dcf.originatorMacDataService packetFragmented:count 0
scalar MultiRadio.router.wlan[0].mac.dcf.recipientMacDataService packetDeaggregated:count 0
scalar MultiRadio.router.wlan[0].mac.dcf.recipientMacDataService packetDefragmented:count 101
scalar MultiRadio.router.wlan[0].mac.dcf.recipientMacDataService packetDropDuplicateDetected:count 0
scalar MultiRadio.router.wlan[0].mac.dcf.recipientMacDataService packetDropDuplicateDetected:sum(packetBytes) 0
scalar MultiRadio.router.wlan[0].mac.dcf.recoveryProcedure retryLimitReached:count 0
scalar MultiRadio.router.wlan[0].mac.dcf frameSequenceFinished:count 101
scalar MultiRadio.router.wlan[0].mac.dcf packetReceivedFromPeer:count 202
scalar MultiRadio.router.wlan[0].mac.dcf packetReceivedFromPeer:sum(packetBytes) 13478
scalar MultiRadio.router.wlan[0].mac.dcf packetReceivedFromPeerUnicast:count 201
scalar MultiRadio.router.wlan[0].mac.dcf packetReceivedFromPeerUnicast:sum(packetBytes) 13414
scalar MultiRadio.router.wlan[0].mac.dcf packetReceivedFromPeerMulticast:count 1
scalar MultiRadio.router.wlan[0].mac.dcf packetReceivedFromPeerMulticast:sum(packetBytes) 64
scalar MultiRadio.router.wlan[0].mac.dcf packetReceivedFromPeerBroadcast:count 1
scalar MultiRadio.router.wlan[0].mac.dcf packetReceivedFromPeerBroadcast:sum(packetBytes) 64
scalar MultiRadio.router.wlan[0].mac.dcf packetReceivedFromPeerWithRetry:count 0
scalar MultiRadio.router.wlan[0].mac.dcf packetReceivedFromPeerWithRetry:sum(packetBytes) 0
scalar MultiRadio.router.wlan[0].mac.dcf packetReceivedFromPeerWithoutRetry:count 202
scalar MultiRadio.router.wlan[0].mac.dcf packetReceivedFromPeerWithoutRetry:sum(packetBytes) 13478
scalar MultiRadio.router.wlan[0].mac.dcf packetSentToPeer:count 201
scalar MultiRadio.router.wlan[0].mac.dcf packetSentToPeer:sum(packetBytes) 13464
scalar MultiRadio.router.wlan[0].mac.dcf packetSentToPeerUnicast:count 201
scalar MultiRadio.router.wlan[0].mac.dcf packetSentToPeerUnicast:sum(packetBytes) 13464
scalar MultiRadio.router.wlan[0].mac.dcf packetSentToPeerMulticast:count 0
scalar MultiRadio.router.wlan[0].mac.dcf packetSentToPeerMulticast:sum(packetBytes) 0
scalar MultiRadio.router.wlan[0].mac.dcf packetSentToPeerBroadcast:count 0
scalar MultiRadio.router.wlan[0].mac.dcf packetSentToPeerBroadcast:sum(packetBytes) 0
scalar MultiRadio.router.wlan[0].mac.dcf packetSentToPeerWithRetry:count 0
scalar MultiRadio.router.wlan[0].mac.dcf packetSentToPeerWithRetry:sum(packetBytes) 0
scalar MultiRadio.router.wlan[0].mac.dcf packetSentToPeerWithoutRetry:count 201
scalar MultiRadio.router.wlan[0].mac.dcf packetSentToPeerWithoutRetry:sum(packetBytes) 13464
scalar MultiRadio.router.wlan[0].mac.dcf packetDrop:count 404
scalar MultiRadio.router.wlan[0].mac.dcf packetDrop:sum(packetBytes) 26956
scalar MultiRadio.router.wlan[0].mac.dcf packetDropNotAddressedToUs:count 404
scalar MultiRadio.router.wlan[0].mac.dcf packetDropNotAddressedToUs:sum(packetBytes) 26956
scalar MultiRadio.router.wlan[0].mac.dcf packetDropQueueOverflow:count 0
scalar MultiRadio.router.wlan[0].mac.dcf packetDropQueueOverflow:sum(packetBytes) 0
scalar MultiRadio.router.wlan[0].mac.dcf packetDropRetryLimitReached:count 0
scalar MultiRadio.router.wlan[0].mac.dcf packetDropRetryLimitReached:sum(packetBytes) 0
scalar MultiRadio.router.wlan[0].mac.dcf linkBroken:count 0
scalar MultiRadio.router.wlan[0].mac packetReceivedFromLower:count 606
scalar MultiRadio.router.wlan[0].mac packetReceivedFromLower:sum(packetBytes) 40434
scalar MultiRadio.router.wlan[0].mac packetSentToLower:count 201
scalar MultiRadio.router.wlan[0].mac packetSentToLower:sum(packetBytes) 13464
scalar MultiRadio.router.wlan[0].mac packetReceivedFromUpper:count 101
scalar MultiRadio.router.wlan[0].mac packetReceivedFromUpper:sum(packetBytes) 9236
scalar MultiRadio.router.wlan[0].mac packetSentToUpper:count 101
scalar MultiRadio.router.wlan[0].mac packetSentToUpper:sum(packetBytes) 9236
scalar MultiRadio.router.wlan[0].mac packetDrop:count 404
scalar MultiRadio.router.wlan[0].mac packetDrop:sum(packetBytes) 26956
scalar MultiRadio.router.wlan[0].mac packetDropIncorrectlyReceived:count 0
scalar MultiRadio.router.wlan[0].mac packetDropIncorrectlyReceived:sum(packetBytes) 0
scalar MultiRadio.router.wlan[0].mac packetDropNotAddressedToUs:count 404
scalar MultiRadio.router.wlan[0].mac packetDropNotAddressedToUs:sum(packetBytes) 26956
scalar MultiRadio.router.wlan[0].mac packetDropQueueOverflow:count 0
scalar MultiRadio.router.wlan[0].mac packetDropQueueOverflow:sum(packetBytes) 0
scalar MultiRadio.router.wlan[0].mac packetDropRetryLimitReached:count 0
scalar MultiRadio.router.wlan[0].mac packetDropRetryLimitReached:sum(packetBytes) 0
scalar MultiRadio.router.wlan[0].mac packetDropDuplicateDetected:count 0
scalar MultiRadio.router.wlan[0].mac packetDropDuplicateDetected:sum(packetBytes) 0
scalar MultiRadio.router.wlan[0].mac packetDropOther:count 0
scalar MultiRadio.router.wlan[0].mac packetDropOther:sum(packetBytes) 0
scalar MultiRadio.router.wlan[0].mac linkBroken:count 0
scalar MultiRadio.router.wlan[0].radio radioMode:count 405
scalar MultiRadio.router.wlan[0].radio receptionState:count 1615
scalar MultiRadio.router.wlan[0].radio transmissionState:count 804
scalar MultiRadio.router.wlan[0] packetDropInterfaceDown:count 0
scalar MultiRadio.router.wlan[0] packetDropInterfaceDown:sum(packetBytes) 0
scalar MultiRadio.router.wlan[0] packetDropNoCarrier:count 0
scalar MultiRadio.router.wlan[0] packetDropNoCarrier:sum(packetBytes) 0
scalar MultiRadio.router.wlan[1].mac.dcf.channelAccess.pendingQueue queueLength:last 0
scalar MultiRadio.router.wlan[1].mac.dcf.channelAccess.pendingQueue queueLength:max 1
scalar MultiRadio.router.wlan[1].mac.dcf.channelAccess.pendingQueue queueLength:timeavg 5.03e-06
scalar MultiRadio.router.wlan[1].mac.dcf.channelAccess.pendingQueue queueBitLength:last 0
scalar MultiRadio.router.wlan[1].mac.dcf.channelAccess.pendingQueue queueBitLength:max 960
scalar MultiRadio.router.wlan[1].mac.dcf.channelAccess.pendingQueue queueBitLength:timeavg 0.0048288
scalar MultiRadio.router.wlan[1].mac.dcf.channelAccess.pendingQueue outgoingPackets:count 101
scalar MultiRadio.router.wlan[1].mac.dcf.channelAccess.pendingQueue outgoingPacketLengths:sum 96512
scalar MultiRadio.router.wlan[1].mac.dcf.channelAccess.pendingQueue incomingPackets:count 101
scalar MultiRadio.router.wlan[1].mac.dcf.channelAccess.pendingQueue incomingPacketLengths:sum 96512
scalar MultiRadio.router.wlan[1].mac.dcf.channelAccess.pendingQueue droppedPacketsQueueOverflow:count 0
scalar MultiRadio.router.wlan[1].mac.dcf.channelAccess.pendingQueue droppedPacketLengthsQueueOverflow:sum 0
scalar MultiRadio.router.wlan[1].mac.dcf.channelAccess.inProgressFrames queueLength:max 1
scalar MultiRadio.router.wlan[1].mac.dcf.channelAccess.inProgressFrames queueLength:timeavg 0.00049833309444
scalar MultiRadio.router.wlan[1].mac.dcf.channelAccess.contention channelAccessGranted:count 101
scalar MultiRadio.router.wlan[1].mac.dcf.channelAccess.contention stateChanged:count 3230
scalar MultiRadio.router.wlan[1].mac.dcf.channelAccess channelOwnershipChanged:count 202
scalar MultiRadio.router.wlan[1].mac.dcf.originatorMacDataService packetAggregated:count 0
scalar MultiRadio.router.wlan[1].mac.dcf.originatorMacDataService packetFragmented:count 0
scalar MultiRadio.router.wlan[1].mac.dcf.recipientMacDataService packetDeaggregated:count 0
scalar MultiRadio.router.wlan[1].mac.dcf.recipientMacDataService packetDefragmented:count 101
scalar MultiRadio.router.wlan[1].mac.dcf.recipientMacDataService packetDropDuplicateDetected:count 0
scalar MultiRadio.router.wlan[1].mac.dcf.recipientMacDataService packetDropDuplicateDetected:sum(packetBytes) 0
scalar MultiRadio.router.wlan[1].mac.dcf.recoveryProcedure retryLimitReached:count 0
scalar MultiRadio.router.wlan[1].mac.dcf frameSequenceFinished:count 101
scalar MultiRadio.router.wlan[1].mac.dcf packetReceivedFromPeer:count 202
scalar MultiRadio.router.wlan[1].mac.dcf packetReceivedFromPeer:sum(packetBytes) 13478
scalar MultiRadio.router.wlan[1].mac.dcf packetReceivedFromPeerUnicast:count 202
scalar MultiRadio.router.wlan[1].mac.dcf packetReceivedFromPeerUnicast:sum(packetBytes) 13478
scalar MultiRadio.router.wlan[1].mac.dcf packetReceivedFromPeerMulticast:count 0
scalar MultiRadio.router.wlan[1].mac.dcf packetReceivedFromPeerMulticast:sum(packetBytes) 0
scalar MultiRadio.router.wlan[1].mac.dcf packetReceivedFromPeerBroadcast:count 0
scalar MultiRadio.router.wlan[1].mac.dcf packetReceivedFromPeerBroadcast:sum(packetBytes) 0
scalar MultiRadio.router.wlan[1].mac.dcf packetReceivedFromPeerWithRetry:count 0
scalar MultiRadio.router.wlan[1].mac.dcf packetReceivedFromPeerWithRetry:sum(packetBytes) 0
scalar MultiRadio.router.wlan[1].mac.dcf packetReceivedFromPeerWithoutRetry:count 202
scalar MultiRadio.router.wlan[1].mac.dcf packetReceivedFromPeerWithoutRetry:sum(packetBytes) 13478
scalar MultiRadio.router.wlan[1].mac.dcf packetSentToPeer:count 202
scalar MultiRadio.router.wlan[1].mac.dcf packetSentToPeer:sum(packetBytes) 13478
scalar MultiRadio.router.wlan[1].mac.dcf packetSentToPeerUnicast:count 202
scalar MultiRadio.router.wlan[1].mac.dcf packetSentToPeerUnicast:sum(packetBytes) 13478
scalar MultiRadio.router.wlan[1].mac.dcf packetSentToPeerMulticast:count 0
scalar MultiRadio.router.wlan[1].mac.dcf packetSentToPeerMulticast:sum(packetBytes) 0
scalar MultiRadio.router.wlan[1].mac.dcf packetSentToPeerBroadcast:count 0
scalar MultiRadio.router.wlan[1].mac.dcf packetSentToPeerBroadcast:sum(packetBytes) 0
scalar MultiRadio.router.wlan[1].mac.dcf packetSentToPeerWithRetry:count 0
scalar MultiRadio.router.wlan[1].mac.dcf packetSentToPeerWithRetry:sum(packetBytes) 0
scalar MultiRadio.router.wlan[1].mac.dcf packetSentToPeerWithoutRetry:count 202
scalar MultiRadio.router.wlan[1].mac.dcf packetSentToPeerWithoutRetry:sum(packetBytes) 13478
scalar MultiRadio.router.wlan[1].mac.dcf packetDrop:count 403
scalar MultiRadio.router.wlan[1].mac.dcf packetDrop:sum(packetBytes) 26942
scalar MultiRadio.router.wlan[1].mac.dcf packetDropNotAddressedToUs:count 403
scalar MultiRadio.router.wlan[1].mac.dcf packetDropNotAddressedToUs:sum(packetBytes) 26942
scalar MultiRadio.router.wlan[1].mac.dcf packetDropQueueOverflow:count 0
scalar MultiRadio.router.wlan[1].mac.dcf packetDropQueueOverflow:sum(packetBytes) 0
scalar MultiRadio.router.wlan[1].mac.dcf packetDropRetryLimitReached:count 0
scalar MultiRadio.router.wlan[1].mac.dcf packetDropRetryLimitReached:sum(packetBytes) 0
scalar MultiRadio.router.wlan[1].mac.dcf linkBroken:count 0
scalar MultiRadio.router.wlan[1].mac packetReceivedFromLower:count 605
scalar MultiRadio.router.wlan[1].mac packetReceivedFromLower:sum(packetBytes) 40420
scalar MultiRadio.router.wlan[1].mac packetSentToLower:count 202
scalar MultiRadio.router.wlan[1].mac packetSentToLower:sum(packetBytes) 13478
scalar MultiRadio.router.wlan[1].mac packetReceivedFromUpper:count 101
scalar MultiRadio.router.wlan[1].mac packetReceivedFromUpper:sum(packetBytes) 9236
scalar MultiRadio.router.wlan[1].mac packetSentToUpper:count 101
scalar MultiRadio.router.wlan[1].mac packetSentToUpper:sum(packetBytes) 9236
scalar MultiRadio.router.wlan[1].mac packetDrop:count 403
scalar MultiRadio.router.wlan[1].mac packetDrop:sum(packetBytes) 26942
scalar MultiRadio.router.wlan[1].mac packetDropIncorrectlyReceived:count 0
scalar MultiRadio.router.wlan[1].mac packetDropIncorrectlyReceived:sum(packetBytes) 0
scalar MultiRadio.router.wlan[1].mac packetDropNotAddressedToUs:count 403
scalar MultiRadio.router.wlan[1].mac packetDropNotAddressedToUs:sum(packetBytes) 26942
scalar MultiRadio.router.wlan[1].mac packetDropQueueOverflow:count 0
scalar MultiRadio.router.wlan[1].mac packetDropQueueOverflow:sum(packetBytes) 0
scalar MultiRadio.router.wlan[1].mac packetDropRetryLimitReached:count 0
scalar MultiRadio.router.wlan[1].mac packetDropRetryLimitReached:sum(packetBytes) 0
scalar MultiRadio.router.wlan[1].mac packetDropDuplicateDetected:count 0
scalar MultiRadio.router.wlan[1].mac packetDropDuplicateDetected:sum(packetBytes) 0
scalar MultiRadio.router.wlan[1].mac packetDropOther:count 0
scalar MultiRadio.router.wlan[1].mac packetDropOther:sum(packetBytes) 0
scalar MultiRadio.router.wlan[1].mac linkBroken:count 0
scalar MultiRadio.router.wlan[1].radio radioMode:count 407
scalar MultiRadio.router.wlan[1].radio receptionState:count 1615
scalar MultiRadio.router.wlan[1].radio transmissionState:count 808
scalar MultiRadio.router.wlan[1] packetDropInterfaceDown:count 0
scalar MultiRadio.router.wlan[1] packetDropInterfaceDown:sum(packetBytes) 0
scalar MultiRadio.router.wlan[1] packetDropNoCarrier:count 0
scalar MultiRadio.router.wlan[1] packetDropNoCarrier:sum(packetBytes) 0
scalar MultiRadio.router.ipv4.ip packetDropAddressResolutionFailed:count 0
scalar MultiRadio.router.ipv4.ip packetDropAddressResolutionFailed:sum(packetBytes) 0
scalar MultiRadio.router.ipv4.ip packetDropHopLimitReached:count 0
scalar MultiRadio.router.ipv4.ip packetDropHopLimitReached:sum(packetBytes) 0
scalar MultiRadio.router.ipv4.ip packetDropForwardingDisabled:count 0
scalar MultiRadio.router.ipv4.ip packetDropForwardingDisabled:sum(packetBytes) 0
scalar MultiRadio.router.ipv4.ip packetDropLifetimeExpired:count 0
scalar MultiRadio.router.ipv4.ip packetDropLifetimeExpired:sum(packetBytes) 0
scalar MultiRadio.router.ipv4.ip packetDropNoInterfaceFound:count 0
scalar MultiRadio.router.ipv4.ip packetDropNoInterfaceFound:sum(packetBytes) 0
scalar MultiRadio.router.ipv4.ip packetDropNoRouteFound:count 0
scalar MultiRadio.router.ipv4.ip packetDropNoRouteFound:sum(packetBytes) 0
scalar MultiRadio.router.ipv4.ip packetDropUndefined:count 0
scalar MultiRadio.router.ipv4.ip packetDropUndefined:sum(packetBytes) 0
scalar MultiRadio.router.ipv4.arp arpResolutionFailed:count 0
scalar MultiRadio.router.ipv4.arp arpResolutionCompleted:count 2
scalar MultiRadio.router.ipv4.arp arpResolutionInitiated:count 1
scalar MultiRadio.router.ipv4.arp arpReplySent:count 1
scalar MultiRadio.router.ipv4.arp arpReplySent:sum(packetBytes) 28
scalar MultiRadio.router.ipv4.arp arpRequestSent:count 1
scalar MultiRadio.router.ipv4.arp arpRequestSent:sum(packetBytes) 28
scalar MultiRadio.host1.wlan[0].mac.dcf.channelAccess.pendingQueue queueingTime:histogram:count 101
scalar MultiRadio.host1.wlan[0].mac.dcf.channelAccess.pendingQueue queueingTime:histogram:sumweights 101
scalar MultiRadio.host1.wlan[0].mac.dcf.channelAccess.pendingQueue queueingTime:histogram:mean 6.1683168316832e-06
scalar MultiRadio.host1.wlan[0].mac.dcf.channelAccess.pendingQueue queueingTime:histogram:stddev 6.1990816950082e-05
scalar MultiRadio.host1.wlan[0].mac.dcf.channelAccess.pendingQueue queueingTime:histogram:min 0
scalar MultiRadio.host1.wlan[0].mac.dcf.channelAccess.pendingQueue queueingTime:histogram:max 0.000623
scalar MultiRadio.host1.wlan[0].mac.dcf.channelAccess.pendingQueue queueingTime:histogram:numbins 78
scalar MultiRadio.host1.wlan[0].mac.dcf.channelAccess.pendingQueue queueingTime:histogram:rangemin 0
scalar MultiRadio.host1.wlan[0].mac.dcf.channelAccess.pendingQueue queueingTime:histogram:rangemax 0.00078
scalar MultiRadio.host1.wlan[0].mac.dcf.channelAccess.pendingQueue queueingTime:histogram:underflows 0
scalar MultiRadio.host1.wlan[0].mac.dcf.channelAccess.pendingQueue queueingTime:histogram:overflows 0
scalar MultiRadio.host1.wlan[0].mac.dcf.channelAccess.pendingQueue outgoingPacketLengths:histogram:count 101
scalar MultiRadio.host1.wlan[0].mac.dcf.channelAccess.pendingQueue outgoingPacketLengths:histogram:sumweights 101
scalar MultiRadio.host1.wlan[0].mac.dcf.channelAccess.pendingQueue outgoingPacketLengths:histogram:mean 955.56435643564
scalar MultiRadio.host1.wlan[0].mac.dcf.channelAccess.pendingQueue outgoingPacketLengths:histogram:stddev 44.577666121408
scalar MultiRadio.host1.wlan[0].mac.dcf.channelAccess.pendingQueue outgoingPacketLengths:histogram:min 512
scalar MultiRadio.host1.wlan[0].mac.dcf.channelAccess.pendingQueue outgoingPacketLengths:histogram:max 960
scalar MultiRadio.host1.wlan[0].mac.dcf.channelAccess.pendingQueue outgoingPacketLengths:histogram:numbins 68
scalar MultiRadio.host1.wlan[0].mac.dcf.channelAccess.pendingQueue outgoingPacketLengths:histogram:rangemin 400
scalar MultiRadio.host1.wlan[0].mac.dcf.channelAccess.pendingQueue outgoingPacketLengths:histogram:rangemax 1080
scalar MultiRadio.host1.wlan[0].mac.dcf.channelAccess.pendingQueue outgoingPacketLengths:histogram:underflows 0
scalar MultiRadio.host1.wlan[0].mac.dcf.channelAccess.pendingQueue outgoingPacketLengths:histogram:overflows 0
scalar MultiRadio.host1.wlan[0].mac.dcf.channelAccess.pendingQueue flowQueueingTime:histogram:count 0
scalar MultiRadio.host1.wlan[0].mac.dcf.channelAccess.pendingQueue flowQueueingTime:histogram:sumweights 0
scalar MultiRadio.host1.wlan[0].mac.dcf.channelAccess.pendingQueue flowQueueingTime:histogram:mean -nan
scalar MultiRadio.host1.wlan[0].mac.dcf.channelAccess.pendingQueue flowQueueingTime:histogram:stddev nan
scalar MultiRadio.host1.wlan[0].mac.dcf.channelAccess.pendingQueue flowQueueingTime:histogram:min nan
scalar MultiRadio.host1.wlan[0].mac.dcf.channelAccess.pendingQueue flowQueueingTime:histogram:max nan
scalar MultiRadio.host1.wlan[0].mac.dcf.channelAccess.pendingQueue flowQueueingTime:histogram:numbins 1
scalar MultiRadio.host1.wlan[0].mac.dcf.channelAccess.pendingQueue flowQueueingTime:histogram:rangemin 0
scalar MultiRadio.host1.wlan[0].mac.dcf.channelAccess.pendingQueue flowQueueingTime:histogram:rangemax 1
scalar MultiRadio.host1.wlan[0].mac.dcf.channelAccess.pendingQueue flowQueueingTime:histogram:underflows 0
scalar MultiRadio.host1.wlan[0].mac.dcf.channelAccess.pendingQueue flowQueueingTime:histogram:overflows 0
scalar MultiRadio.host1.wlan[0].mac.dcf.channelAccess.pendingQueue incomingPacketLengths:histogram:count 101
scalar MultiRadio.host1.wlan[0].mac.dcf.channelAccess.pendingQueue incomingPacketLengths:histogram:sumweights 101
scalar MultiRadio.host1.wlan[0].mac.dcf.channelAccess.pendingQueue incomingPacketLengths:histogram:mean 955.56435643564
scalar MultiRadio.host1.wlan[0].mac.dcf.channelAccess.pendingQueue incomingPacketLengths:histogram:stddev 44.577666121408
scalar MultiRadio.host1.wlan[0].mac.dcf.channelAccess.pendingQueue incomingPacketLengths:histogram:min 512
scalar MultiRadio.host1.wlan[0].mac.dcf.channelAccess.pendingQueue incomingPacketLengths:histogram:max 960
scalar MultiRadio.host1.wlan[0].mac.dcf.channelAccess.pendingQueue incomingPacketLengths:histogram:numbins 68
scalar MultiRadio.host1.wlan[0].mac.dcf.channelAccess.pendingQueue incomingPacketLengths:histogram:rangemin 400
scalar MultiRadio.host1.wlan[0].mac.dcf.channelAccess.pendingQueue incomingPacketLengths:histogram:rangemax 1080
scalar MultiRadio.host1.wlan[0].mac.dcf.channelAccess.pendingQueue incomingPacketLengths:histogram:underflows 0
scalar MultiRadio.host1.wlan[0].mac.dcf.channelAccess.pendingQueue incomingPacketLengths:histogram:overflows 0
scalar MultiRadio.host1.wlan[0].mac.dcf.channelAccess.inProgressFrames queueingTime:histogram:count 101
scalar MultiRadio.host1.wlan[0].mac.dcf.channelAccess.inProgressFrames queueingTime:histogram:sumweights 101
scalar MultiRadio.host1.wlan[0].mac.dcf.channelAccess.inProgressFrames queueingTime:histogram:mean 0.00049341223740594
scalar MultiRadio.host1.wlan[0].mac.dcf.channelAccess.inProgressFrames queueingTime:histogram:stddev 4.0796524795995e-06
scalar MultiRadio.host1.wlan[0].mac.dcf.channelAccess.inProgressFrames queueingTime:histogram:min 0.000452818178
scalar MultiRadio.host1.wlan[0].mac.dcf.channelAccess.inProgressFrames queueingTime:histogram:max 0.000493818178
scalar MultiRadio.host1.wlan[0].mac.dcf.channelAccess.inProgressFrames queueingTime:histogram:numbins 63
scalar MultiRadio.host1.wlan[0].mac.dcf.channelAccess.inProgressFrames queueingTime:histogram:rangemin 0.000442
scalar MultiRadio.host1.wlan[0].mac.dcf.channelAccess.inProgressFrames queueingTime:histogram:rangemax 0.000505
scalar MultiRadio.host1.wlan[0].mac.dcf.channelAccess.inProgressFrames queueingTime:histogram:underflows 0
scalar MultiRadio.host1.wlan[0].mac.dcf.channelAccess.inProgressFrames queueingTime:histogram:overflows 0
scalar MultiRadio.host1.wlan[0].mac.dcf frameSequenceDuration:histogram:count 101
scalar MultiRadio.host1.wlan[0].mac.dcf frameSequenceDuration:histogram:sumweights 101
scalar MultiRadio.host1.wlan[0].mac.dcf frameSequenceDuration:histogram:mean 0.00049341223740594
scalar MultiRadio.host1.wlan[0].mac.dcf frameSequenceDuration:histogram:stddev 4.0796524795995e-06
scalar MultiRadio.host1.wlan[0].mac.dcf frameSequenceDuration:histogram:min 0.000452818178
scalar MultiRadio.host1.wlan[0].mac.dcf frameSequenceDuration:histogram:max 0.000493818178
scalar MultiRadio.host1.wlan[0].mac.dcf frameSequenceDuration:histogram:numbins 63
scalar MultiRadio.host1.wlan[0].mac.dcf frameSequenceDuration:histogram:rangemin 0.000442
scalar MultiRadio.host1.wlan[0].mac.dcf frameSequenceDuration:histogram:rangemax 0.000505
scalar MultiRadio.host1.wlan[0].mac.dcf frameSequenceDuration:histogram:underflows 0
scalar MultiRadio.host1.wlan[0].mac.dcf frameSequenceDuration:histogram:overflows 0
scalar MultiRadio.host1.wlan[0].mac.dcf frameSequenceNumPackets:histogram:count 101
scalar MultiRadio.host1.wlan[0].mac.dcf frameSequenceNumPackets:histogram:sumweights 101
scalar MultiRadio.host1.wlan[0].mac.dcf frameSequenceNumPackets:histogram:mean 2
scalar MultiRadio.host1.wlan[0].mac.dcf frameSequenceNumPackets:histogram:stddev 0
scalar MultiRadio.host1.wlan[0].mac.dcf frameSequenceNumPackets:histogram:min 2
scalar MultiRadio.host1.wlan[0].mac.dcf frameSequenceNumPackets:histogram:max 2
scalar MultiRadio.host1.wlan[0].mac.dcf frameSequenceNumPackets:histogram:numbins 2
scalar MultiRadio.host1.wlan[0].mac.dcf frameSequenceNumPackets:histogram:rangemin 1
scalar MultiRadio.host1.wlan[0].mac.dcf frameSequenceNumPackets:histogram:rangemax 3
scalar MultiRadio.host1.wlan[0].mac.dcf frameSequenceNumPackets:histogram:underflows 0
scalar MultiRadio.host1.wlan[0].mac.dcf frameSequenceNumPackets:histogram:overflows 0
scalar MultiRadio.host1.wlan[0].radio radioChannel:histogram:count 1
scalar MultiRadio.host1.wlan[0].radio radioChannel:histogram:sumweights 1
scalar MultiRadio.host1.wlan[0].radio radioChannel:histogram:mean 0
scalar MultiRadio.host1.wlan[0].radio radioChannel:histogram:stddev nan
scalar MultiRadio.host1.wlan[0].radio radioChannel:histogram:min 0
scalar MultiRadio.host1.wlan[0].radio radioChannel:histogram:max 0
scalar MultiRadio.host1.wlan[0].radio radioChannel:histogram:numbins 50
scalar MultiRadio.host1.wlan[0].radio radioChannel:histogram:rangemin -0.5
scalar MultiRadio.host1.wlan[0].radio radioChannel:histogram:rangemax 0.5
scalar MultiRadio.host1.wlan[0].radio radioChannel:histogram:underflows 0
scalar MultiRadio.host1.wlan[0].radio radioChannel:histogram:overflows 0
scalar MultiRadio.host1.wlan[0].radio minSnir:histogram:count 605
scalar MultiRadio.host1.wlan[0].radio minSnir:histogram:sumweights 605
scalar MultiRadio.host1.wlan[0].radio minSnir:histogram:mean 10844.327977592
scalar MultiRadio.host1.wlan[0].radio minSnir:histogram:stddev 3070.4524635172
scalar MultiRadio.host1.wlan[0].radio minSnir:histogram:min 6494.8632434983
scalar MultiRadio.host1.wlan[0].radio minSnir:histogram:max 13008.294342822
scalar MultiRadio.host1.wlan[0].radio minSnir:histogram:numbins 50
scalar MultiRadio.host1.wlan[0].radio minSnir:histogram:rangemin 4800
scalar MultiRadio.host1.wlan[0].radio minSnir:histogram:rangemax 14800
scalar MultiRadio.host1.wlan[0].radio minSnir:histogram:underflows 0
scalar MultiRadio.host1.wlan[0].radio minSnir:histogram:overflows 0
scalar MultiRadio.host1.wlan[0].radio packetErrorRate:histogram:count 605
scalar MultiRadio.host1.wlan[0].radio packetErrorRate:histogram:sumweights 605
scalar MultiRadio.host1.wlan[0].radio packetErrorRate:histogram:mean 0
scalar MultiRadio.host1.wlan[0].radio packetErrorRate:histogram:stddev 0
scalar MultiRadio.host1.wlan[0].radio packetErrorRate:histogram:min 0
scalar MultiRadio.host1.wlan[0].radio packetErrorRate:histogram:max 0
scalar MultiRadio.host1.wlan[0].radio packetErrorRate:histogram:numbins 50
scalar MultiRadio.host1.wlan[0].radio packetErrorRate:histogram:rangemin -0.5
scalar MultiRadio.host1.wlan[0].radio packetErrorRate:histogram:rangemax 0.5
scalar MultiRadio.host1.wlan[0].radio packetErrorRate:histogram:underflows 0
scalar MultiRadio.host1.wlan[0].radio packetErrorRate:histogram:overflows 0
scalar MultiRadio.host1.wlan[0].radio bitErrorRate:histogram:count 0
scalar MultiRadio.host1.wlan[0].radio bitErrorRate:histogram:sumweights 0
scalar MultiRadio.host1.wlan[0].radio bitErrorRate:histogram:mean -nan
scalar MultiRadio.host1.wlan[0].radio bitErrorRate:histogram:stddev nan
scalar MultiRadio.host1.wlan[0].radio bitErrorRate:histogram:min nan
scalar MultiRadio.host1.wlan[0].radio bitErrorRate:histogram:max nan
scalar MultiRadio.host1.wlan[0].radio bitErrorRate:histogram:numbins 1
scalar MultiRadio.host1.wlan[0].radio bitErrorRate:histogram:rangemin 0
scalar MultiRadio.host1.wlan[0].radio bitErrorRate:histogram:rangemax 1
scalar MultiRadio.host1.wlan[0].radio bitErrorRate:histogram:underflows 0
scalar MultiRadio.host1.wlan[0].radio bitErrorRate:histogram:overflows 0
scalar MultiRadio.host1.wlan[0].radio symbolErrorRate:histogram:count 0
scalar MultiRadio.host1.wlan[0].radio symbolErrorRate:histogram:sumweights 0
scalar MultiRadio.host1.wlan[0].radio symbolErrorRate:histogram:mean -nan
scalar MultiRadio.host1.wlan[0].radio symbolErrorRate:histogram:stddev nan
scalar MultiRadio.host1.wlan[0].radio symbolErrorRate:histogram:min nan
scalar MultiRadio.host1.wlan[0].radio symbolErrorRate:histogram:max nan
scalar MultiRadio.host1.wlan[0].radio symbolErrorRate:histogram:numbins 1
scalar MultiRadio.host1.wlan[0].radio symbolErrorRate:histogram:rangemin 0
scalar MultiRadio.host1.wlan[0].radio symbolErrorRate:histogram:rangemax 1
scalar MultiRadio.host1.wlan[0].radio symbolErrorRate:histogram:underflows 0
scalar MultiRadio.host1.wlan[0].radio symbolErrorRate:histogram:overflows 0
scalar MultiRadio.host1.app[0] rtt:histogram:count 100
scalar MultiRadio.host1.app[0] rtt:histogram:sumweights 100
scalar MultiRadio.host1.app[0] rtt:histogram:mean 0.00509915817334
scalar MultiRadio.host1.app[0] rtt:histogram:stddev 0.00072676207819888
scalar MultiRadio.host1.app[0] rtt:histogram:min 0.003998423934
scalar MultiRadio.host1.app[0] rtt:histogram:max 0.011011847868
scalar MultiRadio.host1.app[0] rtt:histogram:numbins 53
scalar MultiRadio.host1.app[0] rtt:histogram:rangemin 0.0022
scalar MultiRadio.host1.app[0] rtt:histogram:rangemax 0.0128
scalar MultiRadio.host1.app[0] rtt:histogram:underflows 0
scalar MultiRadio.host1.app[0] rtt:histogram:overflows 0
scalar MultiRadio.host2.wlan[0].mac.dcf.channelAccess.pendingQueue queueingTime:histogram:count 101
scalar MultiRadio.host2.wlan[0].mac.dcf.channelAccess.pendingQueue queueingTime:histogram:sumweights 101
scalar MultiRadio.host2.wlan[0].mac.dcf.channelAccess.pendingQueue queueingTime:histogram:mean 0.00057376237623762
scalar MultiRadio.host2.wlan[0].mac.dcf.channelAccess.pendingQueue queueingTime:histogram:stddev 0.00019394304053071
scalar MultiRadio.host2.wlan[0].mac.dcf.channelAccess.pendingQueue queueingTime:histogram:min 0.000263
scalar MultiRadio.host2.wlan[0].mac.dcf.channelAccess.pendingQueue queueingTime:histogram:max 0.000883
scalar MultiRadio.host2.wlan[0].mac.dcf.channelAccess.pendingQueue queueingTime:histogram:numbins 47
scalar MultiRadio.host2.wlan[0].mac.dcf.channelAccess.pendingQueue queueingTime:histogram:rangemin 0.0001
scalar MultiRadio.host2.wlan[0].mac.dcf.channelAccess.pendingQueue queueingTime:histogram:rangemax 0.00104
scalar MultiRadio.host2.wlan[0].mac.dcf.channelAccess.pendingQueue queueingTime:histogram:underflows 0
scalar MultiRadio.host2.wlan[0].mac.dcf.channelAccess.pendingQueue queueingTime:histogram:overflows 0
scalar MultiRadio.host2.wlan[0].mac.dcf.channelAccess.pendingQueue outgoingPacketLengths:histogram:count 101
scalar MultiRadio.host2.wlan[0].mac.dcf.channelAccess.pendingQueue outgoingPacketLengths:histogram:sumweights 101
scalar MultiRadio.host2.wlan[0].mac.dcf.channelAccess.pendingQueue outgoingPacketLengths:histogram:mean 955.56435643564
scalar MultiRadio.host2.wlan[0].mac.dcf.channelAccess.pendingQueue outgoingPacketLengths:histogram:stddev 44.577666121408
scalar MultiRadio.host2.wlan[0].mac.dcf.channelAccess.pendingQueue outgoingPacketLengths:histogram:min 512
scalar MultiRadio.host2.wlan[0].mac.dcf.channelAccess.pendingQueue outgoingPacketLengths:histogram:max 960
scalar MultiRadio.host2.wlan[0].mac.dcf.channelAccess.pendingQueue outgoingPacketLengths:histogram:numbins 68
scalar MultiRadio.host2.wlan[0].mac.dcf.channelAccess.pendingQueue outgoingPacketLengths:histogram:rangemin 400
scalar MultiRadio.host2.wlan[0].mac.dcf.channelAccess.pendingQueue outgoingPacketLengths:histogram:rangemax 1080
scalar MultiRadio.host2.wlan[0].mac.dcf.channelAccess.pendingQueue outgoingPacketLengths:histogram:underflows 0
scalar MultiRadio.host2.wlan[0].mac.dcf.channelAccess.pendingQueue outgoingPacketLengths:histogram:overflows 0
scalar MultiRadio.host2.wlan[0].mac.dcf.channelAccess.pendingQueue flowQueueingTime:histogram:count 0
scalar MultiRadio.host2.wlan[0].mac.dcf.channelAccess.pendingQueue flowQueueingTime:histogram:sumweights 0
scalar MultiRadio.host2.wlan[0].mac.dcf.channelAccess.pendingQueue flowQueueingTime:histogram:mean -nan
scalar MultiRadio.host2.wlan[0].mac.dcf.channelAccess.pendingQueue flowQueueingTime:histogram:stddev nan
scalar MultiRadio.host2.wlan[0].mac.dcf.channelAccess.pendingQueue flowQueueingTime:histogram:min nan
scalar MultiRadio.host2.wlan[0].mac.dcf.channelAccess.pendingQueue flowQueueingTime:histogram:max nan
scalar MultiRadio.host2.wlan[0].mac.dcf.channelAccess.pendingQueue flowQueueingTime:histogram:numbins 1
scalar MultiRadio.host2.wlan[0].mac.dcf.channelAccess.pendingQueue flowQueueingTime:histogram:rangemin 0
scalar MultiRadio.host2.wlan[0].mac.dcf.channelAccess.pendingQueue flowQueueingTime:histogram:rangemax 1
scalar MultiRadio.host2.wlan[0].mac.dcf.channelAccess.pendingQueue flowQueueingTime:histogram:underflows 0
scalar MultiRadio.host2.wlan[0].mac.dcf.channelAccess.pendingQueue flowQueueingTime:histogram:overflows 0
scalar MultiRadio.host2.wlan[0].mac.dcf.channelAccess.pendingQueue incomingPacketLengths:histogram:count 101
scalar MultiRadio.host2.wlan[0].mac.dcf.channelAccess.pendingQueue incomingPacketLengths:histogram:sumweights 101
scalar MultiRadio.host2.wlan[0].mac.dcf.channelAccess.pendingQueue incomingPacketLengths:histogram:mean 955.56435643564
scalar MultiRadio.host2.wlan[0].mac.dcf.channelAccess.pendingQueue incomingPacketLengths:histogram:stddev 44.577666121408
scalar MultiRadio.host2.wlan[0].mac.dcf.channelAccess.pendingQueue incomingPacketLengths:histogram:min 512
scalar MultiRadio.host2.wlan[0].mac.dcf.channelAccess.pendingQueue incomingPacketLengths:histogram:max 960
scalar MultiRadio.host2.wlan[0].mac.dcf.channelAccess.pendingQueue incomingPacketLengths:histogram:numbins 68
scalar MultiRadio.host2.wlan[0].mac.dcf.channelAccess.pendingQueue incomingPacketLengths:histogram:rangemin 400
scalar MultiRadio.host2.wlan[0].mac.dcf.channelAccess.pendingQueue incomingPacketLengths:histogram:rangemax 1080
scalar MultiRadio.host2.wlan[0].mac.dcf.channelAccess.pendingQueue incomingPacketLengths:histogram:underflows 0
scalar MultiRadio.host2.wlan[0].mac.dcf.channelAccess.pendingQueue incomingPacketLengths:histogram:overflows 0
scalar MultiRadio.host2.wlan[0].mac.dcf.channelAccess.inProgressFrames queueingTime:histogram:count 101
scalar MultiRadio.host2.wlan[0].mac.dcf.channelAccess.inProgressFrames queueingTime:histogram:sumweights 101
scalar MultiRadio.host2.wlan[0].mac.dcf.channelAccess.inProgressFrames queueingTime:histogram:mean 0.00049355657540594
scalar MultiRadio.host2.wlan[0].mac.dcf.channelAccess.inProgressFrames queueingTime:histogram:stddev 4.0796524797697e-06
scalar MultiRadio.host2.wlan[0].mac.dcf.channelAccess.inProgressFrames queueingTime:histogram:min 0.000452962516
scalar MultiRadio.host2.wlan[0].mac.dcf.channelAccess.inProgressFrames queueingTime:histogram:max 0.000493962516
scalar MultiRadio.host2.wlan[0].mac.dcf.channelAccess.inProgressFrames queueingTime:histogram:numbins 63
scalar MultiRadio.host2.wlan[0].mac.dcf.channelAccess.inProgressFrames queueingTime:histogram:rangemin 0.000442
scalar MultiRadio.host2.wlan[0].mac.dcf.channelAccess.inProgressFrames queueingTime:histogram:rangemax 0.000505
scalar MultiRadio.host2.wlan[0].mac.dcf.channelAccess.inProgressFrames queueingTime:histogram:underflows 0
scalar MultiRadio.host2.wlan[0].mac.dcf.channelAccess.inProgressFrames queueingTime:histogram:overflows 0
scalar MultiRadio.host2.wlan[0].mac.dcf frameSequenceDuration:histogram:count 101
scalar MultiRadio.host2.wlan[0].mac.dcf frameSequenceDuration:histogram:sumweights 101
scalar MultiRadio.host2.wlan[0].mac.dcf frameSequenceDuration:histogram:mean 0.00049355657540594
scalar MultiRadio.host2.wlan[0].mac.dcf frameSequenceDuration:histogram:stddev 4.0796524797697e-06
scalar MultiRadio.host2.wlan[0].mac.dcf frameSequenceDuration:histogram:min 0.000452962516
scalar MultiRadio.host2.wlan[0].mac.dcf frameSequenceDuration:histogram:max 0.000493962516
scalar MultiRadio.host2.wlan[0].mac.dcf frameSequenceDuration:histogram:numbins 63
scalar MultiRadio.host2.wlan[0].mac.dcf frameSequenceDuration:histogram:rangemin 0.000442
scalar MultiRadio.host2.wlan[0].mac.dcf frameSequenceDuration:histogram:rangemax 0.000505
scalar MultiRadio.host2.wlan[0].mac.dcf frameSequenceDuration:histogram:underflows 0
scalar MultiRadio.host2.wlan[0].mac.dcf frameSequenceDuration:histogram:overflows 0
scalar MultiRadio.host2.wlan[0].mac.dcf frameSequenceNumPackets:histogram:count 101
scalar MultiRadio.host2.wlan[0].mac.dcf frameSequenceNumPackets:histogram:sumweights 101
scalar MultiRadio.host2.wlan[0].mac.dcf frameSequenceNumPackets:histogram:mean 2
scalar MultiRadio.host2.wlan[0].mac.dcf frameSequenceNumPackets:histogram:stddev 0
scalar MultiRadio.host2.wlan[0].mac.dcf frameSequenceNumPackets:histogram:min 2
scalar MultiRadio.host2.wlan[0].mac.dcf frameSequenceNumPackets:histogram:max 2
scalar MultiRadio.host2.wlan[0].mac.dcf frameSequenceNumPackets:histogram:numbins 2
scalar MultiRadio.host2.wlan[0].mac.dcf frameSequenceNumPackets:histogram:rangemin 1
scalar MultiRadio.host2.wlan[0].mac.dcf frameSequenceNumPackets:histogram:rangemax 3
scalar MultiRadio.host2.wlan[0].mac.dcf frameSequenceNumPackets:histogram:underflows 0
scalar MultiRadio.host2.wlan[0].mac.dcf frameSequenceNumPackets:histogram:overflows 0
scalar MultiRadio.host2.wlan[0].radio radioChannel:histogram:count 1
scalar MultiRadio.host2.wlan[0].radio radioChannel:histogram:sumweights 1
scalar MultiRadio.host2.wlan[0].radio radioChannel:histogram:mean 1
scalar MultiRadio.host2.wlan[0].radio radioChannel:histogram:stddev nan
scalar MultiRadio.host2.wlan[0].radio radioChannel:histogram:min 1
scalar MultiRadio.host2.wlan[0].radio radioChannel:histogram:max 1
scalar MultiRadio.host2.wlan[0].radio radioChannel:histogram:numbins 2
scalar MultiRadio.host2.wlan[0].radio radioChannel:histogram:rangemin 0
scalar MultiRadio.host2.wlan[0].radio radioChannel:histogram:rangemax 2
scalar MultiRadio.host2.wlan[0].radio radioChannel:histogram:underflows 0
scalar MultiRadio.host2.wlan[0].radio radioChannel:histogram:overflows 0
scalar MultiRadio.host2.wlan[0].radio minSnir:histogram:count 606
scalar MultiRadio.host2.wlan[0].radio minSnir:histogram:sumweights 606
scalar MultiRadio.host2.wlan[0].radio minSnir:histogram:mean 7831.2532233589
scalar MultiRadio.host2.wlan[0].radio minSnir:histogram:stddev 2164.5305446561
scalar MultiRadio.host2.wlan[0].radio minSnir:histogram:min 4772.6714807776
scalar MultiRadio.host2.wlan[0].radio minSnir:histogram:max 9360.5440946496
scalar MultiRadio.host2.wlan[0].radio minSnir:histogram:numbins 70
scalar MultiRadio.host2.wlan[0].radio minSnir:histogram:rangemin 3600
scalar MultiRadio.host2.wlan[0].radio minSnir:histogram:rangemax 10600
scalar MultiRadio.host2.wlan[0].radio minSnir:histogram:underflows 0
scalar MultiRadio.host2.wlan[0].radio minSnir:histogram:overflows 0
scalar MultiRadio.host2.wlan[0].radio packetErrorRate:histogram:count 606
scalar MultiRadio.host2.wlan[0].radio packetErrorRate:histogram:sumweights 606
scalar MultiRadio.host2.wlan[0].radio packetErrorRate:histogram:mean 0
scalar MultiRadio.host2.wlan[0].radio packetErrorRate:histogram:stddev 0
scalar MultiRadio.host2.wlan[0].radio packetErrorRate:histogram:min 0
scalar MultiRadio.host2.wlan[0].radio packetErrorRate:histogram:max 0
scalar MultiRadio.host2.wlan[0].radio packetErrorRate:histogram:numbins 50
scalar MultiRadio.host2.wlan[0].radio packetErrorRate:histogram:rangemin -0.5
scalar MultiRadio.host2.wlan[0].radio packetErrorRate:histogram:rangemax 0.5
scalar MultiRadio.host2.wlan[0].radio packetErrorRate:histogram:underflows 0
scalar MultiRadio.host2.wlan[0].radio packetErrorRate:histogram:overflows 0
scalar MultiRadio.host2.wlan[0].radio bitErrorRate:histogram:count 0
scalar MultiRadio.host2.wlan[0].radio bitErrorRate:histogram:sumweights 0
scalar MultiRadio.host2.wlan[0].radio bitErrorRate:histogram:mean -nan
scalar MultiRadio.host2.wlan[0].radio bitErrorRate:histogram:stddev nan
scalar MultiRadio.host2.wlan[0].radio bitErrorRate:histogram:min nan
scalar MultiRadio.host2.wlan[0].radio bitErrorRate:histogram:max nan
scalar MultiRadio.host2.wlan[0].radio bitErrorRate:histogram:numbins 1
scalar MultiRadio.host2.wlan[0].radio bitErrorRate:histogram:rangemin 0
scalar MultiRadio.host2.wlan[0].radio bitErrorRate:histogram:rangemax 1
scalar MultiRadio.host2.wlan[0].radio bitErrorRate:histogram:underflows 0
scalar MultiRadio.host2.wlan[0].radio bitErrorRate:histogram:overflows 0
scalar MultiRadio.host2.wlan[0].radio symbolErrorRate:histogram:count 0
scalar MultiRadio.host2.wlan[0].radio symbolErrorRate:histogram:sumweights 0
scalar MultiRadio.host2.wlan[0].radio symbolErrorRate:histogram:mean -nan
scalar MultiRadio.host2.wlan[0].radio symbolErrorRate:histogram:stddev nan
scalar MultiRadio.host2.wlan[0].radio symbolErrorRate:histogram:min nan
scalar MultiRadio.host2.wlan[0].radio symbolErrorRate:histogram:max nan
scalar MultiRadio.host2.wlan[0].radio symbolErrorRate:histogram:numbins 1
scalar MultiRadio.host2.wlan[0].radio symbolErrorRate:histogram:rangemin 0
scalar MultiRadio.host2.wlan[0].radio symbolErrorRate:histogram:rangemax 1
scalar MultiRadio.host2.wlan[0].radio symbolErrorRate:histogram:underflows 0
scalar MultiRadio.host2.wlan[0].radio symbolErrorRate:histogram:overflows 0
scalar MultiRadio.host2.app[0] rtt:histogram:count 0
scalar MultiRadio.host2.app[0] rtt:histogram:sumweights 0
scalar MultiRadio.host2.app[0] rtt:histogram:mean -nan
scalar MultiRadio.host2.app[0] rtt:histogram:stddev nan
scalar MultiRadio.host2.app[0] rtt:histogram:min nan
scalar MultiRadio.host2.app[0] rtt:histogram:max nan
scalar MultiRadio.host2.app[0] rtt:histogram:numbins 1
[...]
scalar MultiRadio.router.wlan[1].mac packetSentToUpper:vector(packetBytes):min 36
scalar MultiRadio.router.wlan[1].mac packetSentToUpper:vector(packetBytes):max 92
scalar MultiRadio.router.wlan[1].mac packetSentToUpper:vector(packetBytes):starttime 0.59949886851
scalar MultiRadio.router.wlan[1].mac packetSentToUpper:vector(packetBytes):endtime 99.596939212136
scalar MultiRadio.router.wlan[1].mac packetSentToLower:vector(packetBytes):count 202
scalar MultiRadio.router.wlan[1].mac packetSentToLower:vector(packetBytes):sum 13478
scalar MultiRadio.router.wlan[1].mac packetSentToLower:vector(packetBytes):sumweights 202
scalar MultiRadio.router.wlan[1].mac packetSentToLower:vector(packetBytes):mean 66.722772277228
scalar MultiRadio.router.wlan[1].mac packetSentToLower:vector(packetBytes):stddev 52.999693758973
scalar MultiRadio.router.wlan[1].mac packetSentToLower:vector(packetBytes):min 14
scalar MultiRadio.router.wlan[1].mac packetSentToLower:vector(packetBytes):max 120
scalar MultiRadio.router.wlan[1].mac packetSentToLower:vector(packetBytes):starttime 0.59688510095
scalar MultiRadio.router.wlan[1].mac packetSentToLower:vector(packetBytes):endtime 99.596949212136
scalar MultiRadio.router.wlan[1].mac packetReceivedFromUpper:vector(packetBytes):count 101
scalar MultiRadio.router.wlan[1].mac packetReceivedFromUpper:vector(packetBytes):sum 9236
scalar MultiRadio.router.wlan[1].mac packetReceivedFromUpper:vector(packetBytes):sumweights 101
scalar MultiRadio.router.wlan[1].mac packetReceivedFromUpper:vector(packetBytes):mean 91.445544554455
scalar MultiRadio.router.wlan[1].mac packetReceivedFromUpper:vector(packetBytes):stddev 5.5722082651759
scalar MultiRadio.router.wlan[1].mac packetReceivedFromUpper:vector(packetBytes):min 36
scalar MultiRadio.router.wlan[1].mac packetReceivedFromUpper:vector(packetBytes):max 92
scalar MultiRadio.router.wlan[1].mac packetReceivedFromUpper:vector(packetBytes):starttime 0.59688510095
scalar MultiRadio.router.wlan[1].mac packetReceivedFromUpper:vector(packetBytes):endtime 99.593948444576
scalar MultiRadio.router.wlan[1].mac packetReceivedFromLower:vector(packetBytes):count 605
scalar MultiRadio.router.wlan[1].mac packetReceivedFromLower:vector(packetBytes):sum 40420
scalar MultiRadio.router.wlan[1].mac packetReceivedFromLower:vector(packetBytes):sumweights 605
scalar MultiRadio.router.wlan[1].mac packetReceivedFromLower:vector(packetBytes):mean 66.809917355372
scalar MultiRadio.router.wlan[1].mac packetReceivedFromLower:vector(packetBytes):stddev 52.912259319098
scalar MultiRadio.router.wlan[1].mac packetReceivedFromLower:vector(packetBytes):min 14
scalar MultiRadio.router.wlan[1].mac packetReceivedFromLower:vector(packetBytes):max 120
scalar MultiRadio.router.wlan[1].mac packetReceivedFromLower:vector(packetBytes):starttime 0.597337905994
scalar MultiRadio.router.wlan[1].mac packetReceivedFromLower:vector(packetBytes):endtime 99.596939212136
scalar MultiRadio.router.wlan[1].mac packetDrop:vector(packetBytes):count 403
scalar MultiRadio.router.wlan[1].mac packetDrop:vector(packetBytes):sum 26942
scalar MultiRadio.router.wlan[1].mac packetDrop:vector(packetBytes):sumweights 403
scalar MultiRadio.router.wlan[1].mac packetDrop:vector(packetBytes):mean 66.853598014888
scalar MultiRadio.router.wlan[1].mac packetDrop:vector(packetBytes):stddev 52.934258538982
scalar MultiRadio.router.wlan[1].mac packetDrop:vector(packetBytes):min 14
scalar MultiRadio.router.wlan[1].mac packetDrop:vector(packetBytes):max 120
scalar MultiRadio.router.wlan[1].mac packetDrop:vector(packetBytes):starttime 0.597746905994
scalar MultiRadio.router.wlan[1].mac packetDrop:vector(packetBytes):endtime 99.596129212136
scalar MultiRadio.router.wlan[1].mac packetDropIncorrectlyReceived:vector(packetBytes):count 0
scalar MultiRadio.router.wlan[1].mac packetDropIncorrectlyReceived:vector(packetBytes):sum 0
scalar MultiRadio.router.wlan[1].mac packetDropIncorrectlyReceived:vector(packetBytes):sumweights 0
scalar MultiRadio.router.wlan[1].mac packetDropIncorrectlyReceived:vector(packetBytes):mean -nan
scalar MultiRadio.router.wlan[1].mac packetDropIncorrectlyReceived:vector(packetBytes):stddev nan
scalar MultiRadio.router.wlan[1].mac packetDropIncorrectlyReceived:vector(packetBytes):min inf
scalar MultiRadio.router.wlan[1].mac packetDropIncorrectlyReceived:vector(packetBytes):max -inf
scalar MultiRadio.router.wlan[1].mac packetDropIncorrectlyReceived:vector(packetBytes):starttime nan
scalar MultiRadio.router.wlan[1].mac packetDropIncorrectlyReceived:vector(packetBytes):endtime nan
scalar MultiRadio.router.wlan[1].mac packetDropNotAddressedToUs:vector(packetBytes):count 403
scalar MultiRadio.router.wlan[1].mac packetDropNotAddressedToUs:vector(packetBytes):sum 26942
scalar MultiRadio.router.wlan[1].mac packetDropNotAddressedToUs:vector(packetBytes):sumweights 403
scalar MultiRadio.router.wlan[1].mac packetDropNotAddressedToUs:vector(packetBytes):mean 66.853598014888
scalar MultiRadio.router.wlan[1].mac packetDropNotAddressedToUs:vector(packetBytes):stddev 52.934258538982
scalar MultiRadio.router.wlan[1].mac packetDropNotAddressedToUs:vector(packetBytes):min 14
scalar MultiRadio.router.wlan[1].mac packetDropNotAddressedToUs:vector(packetBytes):max 120
scalar MultiRadio.router.wlan[1].mac packetDropNotAddressedToUs:vector(packetBytes):starttime 0.597746905994
scalar MultiRadio.router.wlan[1].mac packetDropNotAddressedToUs:vector(packetBytes):endtime 99.596129212136
scalar MultiRadio.router.wlan[1].mac packetDropQueueOverflow:vector(packetBytes):count 0
scalar MultiRadio.router.wlan[1].mac packetDropQueueOverflow:vector(packetBytes):sum 0
scalar MultiRadio.router.wlan[1].mac packetDropQueueOverflow:vector(packetBytes):sumweights 0
scalar MultiRadio.router.wlan[1].mac packetDropQueueOverflow:vector(packetBytes):mean -nan
scalar MultiRadio.router.wlan[1].mac packetDropQueueOverflow:vector(packetBytes):stddev nan
scalar MultiRadio.router.wlan[1].mac packetDropQueueOverflow:vector(packetBytes):min inf
scalar MultiRadio.router.wlan[1].mac packetDropQueueOverflow:vector(packetBytes):max -inf
scalar MultiRadio.router.wlan[1].mac packetDropQueueOverflow:vector(packetBytes):starttime nan
scalar MultiRadio.router.wlan[1].mac packetDropQueueOverflow:vector(packetBytes):endtime nan
scalar MultiRadio.router.wlan[1].mac packetDropRetryLimitReached:vector(packetBytes):count 0
scalar MultiRadio.router.wlan[1].mac packetDropRetryLimitReached:vector(packetBytes):sum 0
scalar MultiRadio.router.wlan[1].mac packetDropRetryLimitReached:vector(packetBytes):sumweights 0
scalar MultiRadio.router.wlan[1].mac packetDropRetryLimitReached:vector(packetBytes):mean -nan
scalar MultiRadio.router.wlan[1].mac packetDropRetryLimitReached:vector(packetBytes):stddev nan
scalar MultiRadio.router.wlan[1].mac packetDropRetryLimitReached:vector(packetBytes):min inf
scalar MultiRadio.router.wlan[1].mac packetDropRetryLimitReached:vector(packetBytes):max -inf
scalar MultiRadio.router.wlan[1].mac packetDropRetryLimitReached:vector(packetBytes):starttime nan
scalar MultiRadio.router.wlan[1].mac packetDropRetryLimitReached:vector(packetBytes):endtime nan
scalar MultiRadio.router.wlan[1].mac packetDropDuplicateDetected:vector(packetBytes):count 0
scalar MultiRadio.router.wlan[1].mac packetDropDuplicateDetected:vector(packetBytes):sum 0
scalar MultiRadio.router.wlan[1].mac packetDropDuplicateDetected:vector(packetBytes):sumweights 0
scalar MultiRadio.router.wlan[1].mac packetDropDuplicateDetected:vector(packetBytes):mean -nan
scalar MultiRadio.router.wlan[1].mac packetDropDuplicateDetected:vector(packetBytes):stddev nan
scalar MultiRadio.router.wlan[1].mac packetDropDuplicateDetected:vector(packetBytes):min inf
scalar MultiRadio.router.wlan[1].mac packetDropDuplicateDetected:vector(packetBytes):max -inf
scalar MultiRadio.router.wlan[1].mac packetDropDuplicateDetected:vector(packetBytes):starttime nan
scalar MultiRadio.router.wlan[1].mac packetDropDuplicateDetected:vector(packetBytes):endtime nan
scalar MultiRadio.router.wlan[1].mac packetDropOther:vector(packetBytes):count 0
scalar MultiRadio.router.wlan[1].mac packetDropOther:vector(packetBytes):sum 0
scalar MultiRadio.router.wlan[1].mac packetDropOther:vector(packetBytes):sumweights 0
scalar MultiRadio.router.wlan[1].mac packetDropOther:vector(packetBytes):mean -nan
scalar MultiRadio.router.wlan[1].mac packetDropOther:vector(packetBytes):stddev nan
scalar MultiRadio.router.wlan[1].mac packetDropOther:vector(packetBytes):min inf
scalar MultiRadio.router.wlan[1].mac packetDropOther:vector(packetBytes):max -inf
scalar MultiRadio.router.wlan[1].mac packetDropOther:vector(packetBytes):starttime nan
scalar MultiRadio.router.wlan[1].mac packetDropOther:vector(packetBytes):endtime nan
scalar MultiRadio.router.wlan[1].radio radioMode:vector:count 407
scalar MultiRadio.router.wlan[1].radio radioMode:vector:sum 1012
scalar MultiRadio.router.wlan[1].radio radioMode:vector:sumweights 407
scalar MultiRadio.router.wlan[1].radio radioMode:vector:mean 2.4864864864865
scalar MultiRadio.router.wlan[1].radio radioMode:vector:stddev 0.52914019782555
scalar MultiRadio.router.wlan[1].radio radioMode:vector:min 0
scalar MultiRadio.router.wlan[1].radio radioMode:vector:max 3
scalar MultiRadio.router.wlan[1].radio radioMode:vector:starttime 0
scalar MultiRadio.router.wlan[1].radio radioMode:vector:endtime 99.597152212136
scalar MultiRadio.router.wlan[1].radio receptionState:vector:count 1615
scalar MultiRadio.router.wlan[1].radio receptionState:vector:sum 2623
scalar MultiRadio.router.wlan[1].radio receptionState:vector:sumweights 1615
scalar MultiRadio.router.wlan[1].radio receptionState:vector:mean 1.6241486068111
scalar MultiRadio.router.wlan[1].radio receptionState:vector:stddev 1.1111851639617
scalar MultiRadio.router.wlan[1].radio receptionState:vector:min 0
scalar MultiRadio.router.wlan[1].radio receptionState:vector:max 3
scalar MultiRadio.router.wlan[1].radio receptionState:vector:starttime 0
scalar MultiRadio.router.wlan[1].radio receptionState:vector:endtime 99.597152212136
scalar MultiRadio.router.wlan[1].radio transmissionState:vector:count 808
scalar MultiRadio.router.wlan[1].radio transmissionState:vector:sum 808
scalar MultiRadio.router.wlan[1].radio transmissionState:vector:sumweights 808
scalar MultiRadio.router.wlan[1].radio transmissionState:vector:mean 1
scalar MultiRadio.router.wlan[1].radio transmissionState:vector:stddev 0.70754475383999
scalar MultiRadio.router.wlan[1].radio transmissionState:vector:min 0
scalar MultiRadio.router.wlan[1].radio transmissionState:vector:max 2
scalar MultiRadio.router.wlan[1].radio transmissionState:vector:starttime 0.59688510095
scalar MultiRadio.router.wlan[1].radio transmissionState:vector:endtime 99.597152212136
scalar MultiRadio.router.wlan[1].radio radioChannel:vector:count 1
scalar MultiRadio.router.wlan[1].radio radioChannel:vector:sum 1
scalar MultiRadio.router.wlan[1].radio radioChannel:vector:sumweights 1
scalar MultiRadio.router.wlan[1].radio radioChannel:vector:mean 1
scalar MultiRadio.router.wlan[1].radio radioChannel:vector:stddev nan
scalar MultiRadio.router.wlan[1].radio radioChannel:vector:min 1
scalar MultiRadio.router.wlan[1].radio radioChannel:vector:max 1
scalar MultiRadio.router.wlan[1].radio radioChannel:vector:starttime 0
scalar MultiRadio.router.wlan[1].radio radioChannel:vector:endtime 0
scalar MultiRadio.router.wlan[1] packetDropInterfaceDown:vector(packetBytes):count 0
scalar MultiRadio.router.wlan[1] packetDropInterfaceDown:vector(packetBytes):sum 0
scalar MultiRadio.router.wlan[1] packetDropInterfaceDown:vector(packetBytes):sumweights 0
scalar MultiRadio.router.wlan[1] packetDropInterfaceDown:vector(packetBytes):mean -nan
scalar MultiRadio.router.wlan[1] packetDropInterfaceDown:vector(packetBytes):stddev nan
scalar MultiRadio.router.wlan[1] packetDropInterfaceDown:vector(packetBytes):min inf
scalar MultiRadio.router.wlan[1] packetDropInterfaceDown:vector(packetBytes):max -inf
scalar MultiRadio.router.wlan[1] packetDropInterfaceDown:vector(packetBytes):starttime nan
scalar MultiRadio.router.wlan[1] packetDropInterfaceDown:vector(packetBytes):endtime nan
scalar MultiRadio.router.wlan[1] packetDropNoCarrier:vector(packetBytes):count 0
scalar MultiRadio.router.wlan[1] packetDropNoCarrier:vector(packetBytes):sum 0
scalar MultiRadio.router.wlan[1] packetDropNoCarrier:vector(packetBytes):sumweights 0
scalar MultiRadio.router.wlan[1] packetDropNoCarrier:vector(packetBytes):mean -nan
scalar MultiRadio.router.wlan[1] packetDropNoCarrier:vector(packetBytes):stddev nan
scalar MultiRadio.router.wlan[1] packetDropNoCarrier:vector(packetBytes):min inf
scalar MultiRadio.router.wlan[1] packetDropNoCarrier:vector(packetBytes):max -inf
scalar MultiRadio.router.wlan[1] packetDropNoCarrier:vector(packetBytes):starttime nan
scalar MultiRadio.router.wlan[1] packetDropNoCarrier:vector(packetBytes):endtime nan
scalar MultiRadio.router.ipv4.ip packetDropAddressResolutionFailed:vector(packetBytes):count 0
scalar MultiRadio.router.ipv4.ip packetDropAddressResolutionFailed:vector(packetBytes):sum 0
scalar MultiRadio.router.ipv4.ip packetDropAddressResolutionFailed:vector(packetBytes):sumweights 0
scalar MultiRadio.router.ipv4.ip packetDropAddressResolutionFailed:vector(packetBytes):mean -nan
scalar MultiRadio.router.ipv4.ip packetDropAddressResolutionFailed:vector(packetBytes):stddev nan
scalar MultiRadio.router.ipv4.ip packetDropAddressResolutionFailed:vector(packetBytes):min inf
scalar MultiRadio.router.ipv4.ip packetDropAddressResolutionFailed:vector(packetBytes):max -inf
scalar MultiRadio.router.ipv4.ip packetDropAddressResolutionFailed:vector(packetBytes):starttime nan
scalar MultiRadio.router.ipv4.ip packetDropAddressResolutionFailed:vector(packetBytes):endtime nan
scalar MultiRadio.router.ipv4.ip packetDropHopLimitReached:vector(packetBytes):count 0
scalar MultiRadio.router.ipv4.ip packetDropHopLimitReached:vector(packetBytes):sum 0
scalar MultiRadio.router.ipv4.ip packetDropHopLimitReached:vector(packetBytes):sumweights 0
scalar MultiRadio.router.ipv4.ip packetDropHopLimitReached:vector(packetBytes):mean -nan
scalar MultiRadio.router.ipv4.ip packetDropHopLimitReached:vector(packetBytes):stddev nan
scalar MultiRadio.router.ipv4.ip packetDropHopLimitReached:vector(packetBytes):min inf
scalar MultiRadio.router.ipv4.ip packetDropHopLimitReached:vector(packetBytes):max -inf
scalar MultiRadio.router.ipv4.ip packetDropHopLimitReached:vector(packetBytes):starttime nan
scalar MultiRadio.router.ipv4.ip packetDropHopLimitReached:vector(packetBytes):endtime nan
scalar MultiRadio.router.ipv4.ip packetDropForwardingDisabled:vector(packetBytes):count 0
scalar MultiRadio.router.ipv4.ip packetDropForwardingDisabled:vector(packetBytes):sum 0
scalar MultiRadio.router.ipv4.ip packetDropForwardingDisabled:vector(packetBytes):sumweights 0
scalar MultiRadio.router.ipv4.ip packetDropForwardingDisabled:vector(packetBytes):mean -nan
scalar MultiRadio.router.ipv4.ip packetDropForwardingDisabled:vector(packetBytes):stddev nan
scalar MultiRadio.router.ipv4.ip packetDropForwardingDisabled:vector(packetBytes):min inf
scalar MultiRadio.router.ipv4.ip packetDropForwardingDisabled:vector(packetBytes):max -inf
scalar MultiRadio.router.ipv4.ip packetDropForwardingDisabled:vector(packetBytes):starttime nan
scalar MultiRadio.router.ipv4.ip packetDropForwardingDisabled:vector(packetBytes):endtime nan
scalar MultiRadio.router.ipv4.ip packetDropLifetimeExpired:vector(packetBytes):count 0
scalar MultiRadio.router.ipv4.ip packetDropLifetimeExpired:vector(packetBytes):sum 0
scalar MultiRadio.router.ipv4.ip packetDropLifetimeExpired:vector(packetBytes):sumweights 0
scalar MultiRadio.router.ipv4.ip packetDropLifetimeExpired:vector(packetBytes):mean -nan
scalar MultiRadio.router.ipv4.ip packetDropLifetimeExpired:vector(packetBytes):stddev nan
scalar MultiRadio.router.ipv4.ip packetDropLifetimeExpired:vector(packetBytes):min inf
scalar MultiRadio.router.ipv4.ip packetDropLifetimeExpired:vector(packetBytes):max -inf
scalar MultiRadio.router.ipv4.ip packetDropLifetimeExpired:vector(packetBytes):starttime nan
scalar MultiRadio.router.ipv4.ip packetDropLifetimeExpired:vector(packetBytes):endtime nan
scalar MultiRadio.router.ipv4.ip packetDropNoInterfaceFound:vector(packetBytes):count 0
scalar MultiRadio.router.ipv4.ip packetDropNoInterfaceFound:vector(packetBytes):sum 0
scalar MultiRadio.router.ipv4.ip packetDropNoInterfaceFound:vector(packetBytes):sumweights 0
scalar MultiRadio.router.ipv4.ip packetDropNoInterfaceFound:vector(packetBytes):mean -nan
scalar MultiRadio.router.ipv4.ip packetDropNoInterfaceFound:vector(packetBytes):stddev nan
scalar MultiRadio.router.ipv4.ip packetDropNoInterfaceFound:vector(packetBytes):min inf
scalar MultiRadio.router.ipv4.ip packetDropNoInterfaceFound:vector(packetBytes):max -inf
scalar MultiRadio.router.ipv4.ip packetDropNoInterfaceFound:vector(packetBytes):starttime nan
scalar MultiRadio.router.ipv4.ip packetDropNoInterfaceFound:vector(packetBytes):endtime nan
scalar MultiRadio.router.ipv4.ip packetDropNoRouteFound:vector(packetBytes):count 0
scalar MultiRadio.router.ipv4.ip packetDropNoRouteFound:vector(packetBytes):sum 0
scalar MultiRadio.router.ipv4.ip packetDropNoRouteFound:vector(packetBytes):sumweights 0
scalar MultiRadio.router.ipv4.ip packetDropNoRouteFound:vector(packetBytes):mean -nan
scalar MultiRadio.router.ipv4.ip packetDropNoRouteFound:vector(packetBytes):stddev nan
scalar MultiRadio.router.ipv4.ip packetDropNoRouteFound:vector(packetBytes):min inf
scalar MultiRadio.router.ipv4.ip packetDropNoRouteFound:vector(packetBytes):max -inf
scalar MultiRadio.router.ipv4.ip packetDropNoRouteFound:vector(packetBytes):starttime nan
scalar MultiRadio.router.ipv4.ip packetDropNoRouteFound:vector(packetBytes):endtime nan
scalar MultiRadio.router.ipv4.ip packetDropUndefined:vector(packetBytes):count 0
scalar MultiRadio.router.ipv4.ip packetDropUndefined:vector(packetBytes):sum 0
scalar MultiRadio.router.ipv4.ip packetDropUndefined:vector(packetBytes):sumweights 0
scalar MultiRadio.router.ipv4.ip packetDropUndefined:vector(packetBytes):mean -nan
scalar MultiRadio.router.ipv4.ip packetDropUndefined:vector(packetBytes):stddev nan
scalar MultiRadio.router.ipv4.ip packetDropUndefined:vector(packetBytes):min inf
scalar MultiRadio.router.ipv4.ip packetDropUndefined:vector(packetBytes):max -inf
scalar MultiRadio.router.ipv4.ip packetDropUndefined:vector(packetBytes):starttime nan
scalar MultiRadio.router.ipv4.ip packetDropUndefined:vector(packetBytes):endtime nan
scalar MultiRadio.router.ipv4.arp arpRequestSent:vector(packetBytes):count 1
scalar MultiRadio.router.ipv4.arp arpRequestSent:vector(packetBytes):sum 28
scalar MultiRadio.router.ipv4.arp arpRequestSent:vector(packetBytes):sumweights 1
scalar MultiRadio.router.ipv4.arp arpRequestSent:vector(packetBytes):mean 28
scalar MultiRadio.router.ipv4.arp arpRequestSent:vector(packetBytes):stddev nan
scalar MultiRadio.router.ipv4.arp arpRequestSent:vector(packetBytes):min 28
scalar MultiRadio.router.ipv4.arp arpRequestSent:vector(packetBytes):max 28
scalar MultiRadio.router.ipv4.arp arpRequestSent:vector(packetBytes):starttime 0.59688510095
scalar MultiRadio.router.ipv4.arp arpRequestSent:vector(packetBytes):endtime 0.59688510095
scalar MultiRadio.router.ipv4.arp arpReplySent:vector(packetBytes):count 1
scalar MultiRadio.router.ipv4.arp arpReplySent:vector(packetBytes):sum 28
scalar MultiRadio.router.ipv4.arp arpReplySent:vector(packetBytes):sumweights 1
scalar MultiRadio.router.ipv4.arp arpReplySent:vector(packetBytes):mean 28
scalar MultiRadio.router.ipv4.arp arpReplySent:vector(packetBytes):stddev nan
scalar MultiRadio.router.ipv4.arp arpReplySent:vector(packetBytes):min 28
scalar MultiRadio.router.ipv4.arp arpReplySent:vector(packetBytes):max 28
scalar MultiRadio.router.ipv4.arp arpReplySent:vector(packetBytes):starttime 0.593766444576
scalar MultiRadio.router.ipv4.arp arpReplySent:vector(packetBytes):endtime 0.593766444576

