version 3
run General-0-20230511-14:12:57-53037
attr configname General
attr datetime 20230511-14:12:57
attr datetimef 20230511-141257
attr description "Automatic multipath stataic stream redundancy configuration"
attr experiment General
attr inifile omnetpp.ini
attr iterationvars ""
attr iterationvarsd ""
attr iterationvarsf ""
attr measurement ""
attr network AutomaticMultipathConfigurationShowcase
attr processid 53037
attr repetition 0
attr replication #0
attr resultdir results
attr runnumber 0
attr seedset 0
config **.param-recording false
config **.vector-recording false
config image-path /home/levy/workspace/inet/images
config output-scalar-file results/omnetpp.ini-General-#0.sca
config sim-time-limit 0.1s
config network AutomaticMultipathConfigurationShowcase
config sim-time-limit 0.1s
config description "Automatic multipath stataic stream redundancy configuration"
config *.macForwardingTableConfigurator.typename ""
config *.*.eth[*].bitrate 100Mbps
config **.channel.per 0.2
config *.*.hasStreamRedundancy true
config *.source.numApps 1
config *.source.app[0].typename UdpSourceApp
config *.source.app[0].io.destAddress "\"destination\""
config *.source.app[0].io.destPort 1000
config *.source.app[0].source.displayStringTextFormat "\"sent %p pk (%l)\""
config *.source.app[0].source.packetLength 1200B
config *.source.app[0].source.productionInterval truncnormal(100us,50us)
config *.destination.numApps 1
config *.destination.app[0].typename UdpSinkApp
config *.destination.app[0].io.localPort 1000
config *.destination.eth[*].address "\"0A-AA-12-34-56-78\""
config *.visualizer.infoVisualizer.modules "\"*.source.app[0].source or *.destination.app[0].sink\""
config *.*.bridging.streamRelay.typename StreamRelayLayer
config *.*.bridging.streamCoder.typename StreamCoderLayer
config *.streamRedundancyConfigurator.typename StreamRedundancyConfigurator
config *.streamRedundancyConfigurator.configuration "[{name: \"S1\", packetFilter: \"*\", source: \"source\", destination: \"destination\",\n                                                 trees: [[[\"source\", \"s1\", \"s2a\", \"s3a\", \"destination\"]],\n                                                         [[\"source\", \"s1\", \"s2b\", \"s3b\", \"destination\"]],\n                                                         [[\"source\", \"s1\", \"s2a\", \"s2b\", \"s3b\", \"destination\"]],\n                                                         [[\"source\", \"s1\", \"s2b\", \"s2a\", \"s3a\", \"destination\"]]]}]"
config *.visualizer.streamRedundancyConfigurationVisualizer.displayTrees true
config *.visualizer.streamRedundancyConfigurationVisualizer.lineColor "\"black\""

scalar AutomaticMultipathConfigurationShowcase.source.bridging.directionReverser.reverser outgoingPackets:count 0
attr recordingmode count
attr source "merge(packetPushedOut, packetPulledOut)"
attr title "outgoing packets, count"
attr unit pk
scalar AutomaticMultipathConfigurationShowcase.source.bridging.directionReverser.reverser outgoingPacketLengths:sum 0
attr interpolationmode none
attr recordingmode sum
attr source "packetLength(merge(packetPushedOut, packetPulledOut))"
attr title "outgoing packet lengths, sum"
attr unit b
statistic AutomaticMultipathConfigurationShowcase.source.bridging.directionReverser.reverser outgoingPacketLengths:histogram
field count 0
field mean -nan
field stddev nan
field min nan
field max nan
field sum 0
field sqrsum 0
attr interpolationmode none
attr recordingmode histogram
attr source "packetLength(merge(packetPushedOut, packetPulledOut))"
attr title "outgoing packet lengths"
attr unit b
bin	-inf	0
bin	0	0
bin	1	0
scalar AutomaticMultipathConfigurationShowcase.source.bridging.directionReverser.reverser flowOutgoingPacketLengths:sum 0
attr interpolationmode none
attr recordingmode sum
attr source "packetLength(demuxFlow(merge(packetPushedOut, packetPulledOut)))"
attr title "flow specific outgoing packet lengths, sum"
attr unit b
statistic AutomaticMultipathConfigurationShowcase.source.bridging.directionReverser.reverser flowOutgoingPacketLengths:histogram
field count 0
field mean -nan
field stddev nan
field min nan
field max nan
field sum 0
field sqrsum 0
attr interpolationmode none
attr recordingmode histogram
attr source "packetLength(demuxFlow(merge(packetPushedOut, packetPulledOut)))"
attr title "flow specific outgoing packet lengths"
attr unit b
bin	-inf	0
bin	0	0
bin	1	0
scalar AutomaticMultipathConfigurationShowcase.source.bridging.directionReverser.reverser incomingPackets:count 0
attr recordingmode count
attr source "merge(packetPushedIn, packetPulledIn)"
attr title "incoming packets, count"
attr unit pk
scalar AutomaticMultipathConfigurationShowcase.source.bridging.directionReverser.reverser incomingPacketLengths:sum 0
attr interpolationmode none
attr recordingmode sum
attr source "packetLength(merge(packetPushedIn, packetPulledIn))"
attr title "incoming packet lengths, sum"
attr unit b
statistic AutomaticMultipathConfigurationShowcase.source.bridging.directionReverser.reverser incomingPacketLengths:histogram
field count 0
field mean -nan
field stddev nan
field min nan
field max nan
field sum 0
field sqrsum 0
attr interpolationmode none
attr recordingmode histogram
attr source "packetLength(merge(packetPushedIn, packetPulledIn))"
attr title "incoming packet lengths"
attr unit b
bin	-inf	0
bin	0	0
bin	1	0
scalar AutomaticMultipathConfigurationShowcase.source.bridging.directionReverser.reverser flowIncomingPacketLengths:sum 0
attr interpolationmode none
attr recordingmode sum
attr source "packetLength(demuxFlow(merge(packetPushedIn, packetPulledIn)))"
attr title "flow specific incoming packet lengths, sum"
attr unit b
statistic AutomaticMultipathConfigurationShowcase.source.bridging.directionReverser.reverser flowIncomingPacketLengths:histogram
field count 0
field mean -nan
field stddev nan
field min nan
field max nan
field sum 0
field sqrsum 0
attr interpolationmode none
attr recordingmode histogram
attr source "packetLength(demuxFlow(merge(packetPushedIn, packetPulledIn)))"
attr title "flow specific incoming packet lengths"
attr unit b
bin	-inf	0
bin	0	0
bin	1	0
scalar AutomaticMultipathConfigurationShowcase.source.bridging.directionReverser.join packets:count 0
attr recordingmode count
attr source "merge(packetPushed, packetPulled)"
attr title "packets, count"
attr unit pk
scalar AutomaticMultipathConfigurationShowcase.source.bridging.directionReverser.join packetLengths:sum 0
attr interpolationmode none
attr recordingmode sum
attr source "packetLength(merge(packetPushed, packetPulled))"
attr title "packet lengths, sum"
attr unit b
statistic AutomaticMultipathConfigurationShowcase.source.bridging.directionReverser.join packetLengths:histogram
field count 0
field mean -nan
field stddev nan
field min nan
field max nan
field sum 0
field sqrsum 0
attr interpolationmode none
attr recordingmode histogram
attr source "packetLength(merge(packetPushed, packetPulled))"
attr title "packet lengths"
attr unit b
bin	-inf	0
bin	0	0
bin	1	0
scalar AutomaticMultipathConfigurationShowcase.source.bridging.streamIdentifier.identifier outgoingPackets:count 947
attr recordingmode count
attr source "merge(packetPushedOut, packetPulledOut)"
attr title "outgoing packets, count"
attr unit pk
scalar AutomaticMultipathConfigurationShowcase.source.bridging.streamIdentifier.identifier outgoingPacketLengths:sum 9303328
attr interpolationmode none
attr recordingmode sum
attr source "packetLength(merge(packetPushedOut, packetPulledOut))"
attr title "outgoing packet lengths, sum"
attr unit b
statistic AutomaticMultipathConfigurationShowcase.source.bridging.streamIdentifier.identifier outgoingPacketLengths:histogram
field count 947
field mean 9824
field stddev 0
field min 9824
field max 9824
field sum 9303328
field sqrsum 91395894272
attr interpolationmode none
attr recordingmode histogram
attr source "packetLength(merge(packetPushedOut, packetPulledOut))"
attr title "outgoing packet lengths"
attr unit b
bin	-inf	0
bin	9823	0
bin	9824	947
bin	9825	0
scalar AutomaticMultipathConfigurationShowcase.source.bridging.streamIdentifier.identifier flowOutgoingPacketLengths:sum 0
attr interpolationmode none
attr recordingmode sum
attr source "packetLength(demuxFlow(merge(packetPushedOut, packetPulledOut)))"
attr title "flow specific outgoing packet lengths, sum"
attr unit b
statistic AutomaticMultipathConfigurationShowcase.source.bridging.streamIdentifier.identifier flowOutgoingPacketLengths:histogram
field count 0
field mean -nan
field stddev nan
field min nan
field max nan
field sum 0
field sqrsum 0
attr interpolationmode none
attr recordingmode histogram
attr source "packetLength(demuxFlow(merge(packetPushedOut, packetPulledOut)))"
attr title "flow specific outgoing packet lengths"
attr unit b
bin	-inf	0
bin	0	0
bin	1	0
scalar AutomaticMultipathConfigurationShowcase.source.bridging.streamIdentifier.identifier incomingPackets:count 947
attr recordingmode count
attr source "merge(packetPushedIn, packetPulledIn)"
attr title "incoming packets, count"
attr unit pk
scalar AutomaticMultipathConfigurationShowcase.source.bridging.streamIdentifier.identifier incomingPacketLengths:sum 9303328
attr interpolationmode none
attr recordingmode sum
attr source "packetLength(merge(packetPushedIn, packetPulledIn))"
attr title "incoming packet lengths, sum"
attr unit b
statistic AutomaticMultipathConfigurationShowcase.source.bridging.streamIdentifier.identifier incomingPacketLengths:histogram
field count 947
field mean 9824
field stddev 0
field min 9824
field max 9824
field sum 9303328
field sqrsum 91395894272
attr interpolationmode none
attr recordingmode histogram
attr source "packetLength(merge(packetPushedIn, packetPulledIn))"
attr title "incoming packet lengths"
attr unit b
bin	-inf	0
bin	9823	0
bin	9824	947
bin	9825	0
scalar AutomaticMultipathConfigurationShowcase.source.bridging.streamIdentifier.identifier flowIncomingPacketLengths:sum 0
attr interpolationmode none
attr recordingmode sum
attr source "packetLength(demuxFlow(merge(packetPushedIn, packetPulledIn)))"
attr title "flow specific incoming packet lengths, sum"
attr unit b
statistic AutomaticMultipathConfigurationShowcase.source.bridging.streamIdentifier.identifier flowIncomingPacketLengths:histogram
field count 0
field mean -nan
field stddev nan
field min nan
field max nan
field sum 0
field sqrsum 0
attr interpolationmode none
attr recordingmode histogram
attr source "packetLength(demuxFlow(merge(packetPushedIn, packetPulledIn)))"
attr title "flow specific incoming packet lengths"
attr unit b
bin	-inf	0
bin	0	0
bin	1	0
scalar AutomaticMultipathConfigurationShowcase.source.bridging.streamRelay.merger outgoingPackets:count 0
attr recordingmode count
attr source "merge(packetPushedOut, packetPulledOut)"
attr title "outgoing packets, count"
attr unit pk
scalar AutomaticMultipathConfigurationShowcase.source.bridging.streamRelay.merger outgoingPacketLengths:sum 0
attr interpolationmode none
attr recordingmode sum
attr source "packetLength(merge(packetPushedOut, packetPulledOut))"
attr title "outgoing packet lengths, sum"
attr unit b
statistic AutomaticMultipathConfigurationShowcase.source.bridging.streamRelay.merger outgoingPacketLengths:histogram
field count 0
field mean -nan
field stddev nan
field min nan
field max nan
field sum 0
field sqrsum 0
attr interpolationmode none
attr recordingmode histogram
attr source "packetLength(merge(packetPushedOut, packetPulledOut))"
attr title "outgoing packet lengths"
attr unit b
bin	-inf	0
bin	0	0
bin	1	0
scalar AutomaticMultipathConfigurationShowcase.source.bridging.streamRelay.merger flowOutgoingPacketLengths:sum 0
attr interpolationmode none
attr recordingmode sum
attr source "packetLength(demuxFlow(merge(packetPushedOut, packetPulledOut)))"
attr title "flow specific outgoing packet lengths, sum"
attr unit b
statistic AutomaticMultipathConfigurationShowcase.source.bridging.streamRelay.merger flowOutgoingPacketLengths:histogram
field count 0
field mean -nan
field stddev nan
field min nan
field max nan
field sum 0
field sqrsum 0
attr interpolationmode none
attr recordingmode histogram
attr source "packetLength(demuxFlow(merge(packetPushedOut, packetPulledOut)))"
attr title "flow specific outgoing packet lengths"
attr unit b
bin	-inf	0
bin	0	0
bin	1	0
scalar AutomaticMultipathConfigurationShowcase.source.bridging.streamRelay.merger incomingPackets:count 0
attr recordingmode count
attr source "merge(packetPushedIn, packetPulledIn)"
attr title "incoming packets, count"
attr unit pk
scalar AutomaticMultipathConfigurationShowcase.source.bridging.streamRelay.merger incomingPacketLengths:sum 0
attr interpolationmode none
attr recordingmode sum
attr source "packetLength(merge(packetPushedIn, packetPulledIn))"
attr title "incoming packet lengths, sum"
attr unit b
statistic AutomaticMultipathConfigurationShowcase.source.bridging.streamRelay.merger incomingPacketLengths:histogram
field count 0
field mean -nan
field stddev nan
field min nan
field max nan
field sum 0
field sqrsum 0
attr interpolationmode none
attr recordingmode histogram
attr source "packetLength(merge(packetPushedIn, packetPulledIn))"
attr title "incoming packet lengths"
attr unit b
bin	-inf	0
bin	0	0
bin	1	0
scalar AutomaticMultipathConfigurationShowcase.source.bridging.streamRelay.merger flowIncomingPacketLengths:sum 0
attr interpolationmode none
attr recordingmode sum
attr source "packetLength(demuxFlow(merge(packetPushedIn, packetPulledIn)))"
attr title "flow specific incoming packet lengths, sum"
attr unit b
statistic AutomaticMultipathConfigurationShowcase.source.bridging.streamRelay.merger flowIncomingPacketLengths:histogram
field count 0
field mean -nan
field stddev nan
field min nan
field max nan
field sum 0
field sqrsum 0
attr interpolationmode none
attr recordingmode histogram
attr source "packetLength(demuxFlow(merge(packetPushedIn, packetPulledIn)))"
attr title "flow specific incoming packet lengths"
attr unit b
bin	-inf	0
bin	0	0
bin	1	0
scalar AutomaticMultipathConfigurationShowcase.source.bridging.streamRelay.merger droppedPackets:count 0
attr recordingmode count
attr source packetDropped
attr title "dropped packets, count"
attr unit pk
scalar AutomaticMultipathConfigurationShowcase.source.bridging.streamRelay.merger droppedPacketLengths:sum 0
attr interpolationmode none
attr recordingmode sum
attr source packetLength(packetDropped)
attr title "dropped packet lengths, sum"
attr unit b
statistic AutomaticMultipathConfigurationShowcase.source.bridging.streamRelay.merger droppedPacketLengths:histogram
field count 0
field mean -nan
field stddev nan
field min nan
field max nan
field sum 0
field sqrsum 0
attr interpolationmode none
attr recordingmode histogram
attr source packetLength(packetDropped)
attr title "dropped packet lengths"
attr unit b
bin	-inf	0
bin	0	0
bin	1	0
scalar AutomaticMultipathConfigurationShowcase.source.bridging.streamRelay.merger flowDroppedPacketLengths:sum 0
attr interpolationmode none
attr recordingmode sum
attr source packetLength(demuxFlow(packetDropped))
attr title "flow specific dropped packet lengths, sum"
attr unit b
statistic AutomaticMultipathConfigurationShowcase.source.bridging.streamRelay.merger flowDroppedPacketLengths:histogram
field count 0
field mean -nan
field stddev nan
field min nan
field max nan
field sum 0
field sqrsum 0
attr interpolationmode none
attr recordingmode histogram
attr source packetLength(demuxFlow(packetDropped))
attr title "flow specific dropped packet lengths"
attr unit b
bin	-inf	0
bin	0	0
bin	1	0
scalar AutomaticMultipathConfigurationShowcase.source.bridging.streamCoder.decoder outgoingPackets:count 0
attr recordingmode count
attr source "merge(packetPushedOut, packetPulledOut)"
attr title "outgoing packets, count"
attr unit pk
scalar AutomaticMultipathConfigurationShowcase.source.bridging.streamCoder.decoder outgoingPacketLengths:sum 0
attr interpolationmode none
attr recordingmode sum
attr source "packetLength(merge(packetPushedOut, packetPulledOut))"
attr title "outgoing packet lengths, sum"
attr unit b
statistic AutomaticMultipathConfigurationShowcase.source.bridging.streamCoder.decoder outgoingPacketLengths:histogram
field count 0
field mean -nan
field stddev nan
field min nan
field max nan
field sum 0
field sqrsum 0
attr interpolationmode none
attr recordingmode histogram
attr source "packetLength(merge(packetPushedOut, packetPulledOut))"
attr title "outgoing packet lengths"
attr unit b
bin	-inf	0
bin	0	0
bin	1	0
scalar AutomaticMultipathConfigurationShowcase.source.bridging.streamCoder.decoder flowOutgoingPacketLengths:sum 0
attr interpolationmode none
attr recordingmode sum
attr source "packetLength(demuxFlow(merge(packetPushedOut, packetPulledOut)))"
attr title "flow specific outgoing packet lengths, sum"
attr unit b
statistic AutomaticMultipathConfigurationShowcase.source.bridging.streamCoder.decoder flowOutgoingPacketLengths:histogram
field count 0
field mean -nan
field stddev nan
field min nan
field max nan
field sum 0
field sqrsum 0
attr interpolationmode none
attr recordingmode histogram
attr source "packetLength(demuxFlow(merge(packetPushedOut, packetPulledOut)))"
attr title "flow specific outgoing packet lengths"
attr unit b
bin	-inf	0
bin	0	0
bin	1	0
scalar AutomaticMultipathConfigurationShowcase.source.bridging.streamCoder.decoder incomingPackets:count 0
attr recordingmode count
attr source "merge(packetPushedIn, packetPulledIn)"
attr title "incoming packets, count"
attr unit pk
scalar AutomaticMultipathConfigurationShowcase.source.bridging.streamCoder.decoder incomingPacketLengths:sum 0
attr interpolationmode none
attr recordingmode sum
attr source "packetLength(merge(packetPushedIn, packetPulledIn))"
attr title "incoming packet lengths, sum"
attr unit b
statistic AutomaticMultipathConfigurationShowcase.source.bridging.streamCoder.decoder incomingPacketLengths:histogram
field count 0
field mean -nan
field stddev nan
field min nan
field max nan
field sum 0
field sqrsum 0
attr interpolationmode none
attr recordingmode histogram
attr source "packetLength(merge(packetPushedIn, packetPulledIn))"
attr title "incoming packet lengths"
attr unit b
bin	-inf	0
bin	0	0
bin	1	0
scalar AutomaticMultipathConfigurationShowcase.source.bridging.streamCoder.decoder flowIncomingPacketLengths:sum 0
attr interpolationmode none
attr recordingmode sum
attr source "packetLength(demuxFlow(merge(packetPushedIn, packetPulledIn)))"
attr title "flow specific incoming packet lengths, sum"
attr unit b
statistic AutomaticMultipathConfigurationShowcase.source.bridging.streamCoder.decoder flowIncomingPacketLengths:histogram
field count 0
field mean -nan
field stddev nan
field min nan
field max nan
field sum 0
field sqrsum 0
attr interpolationmode none
attr recordingmode histogram
attr source "packetLength(demuxFlow(merge(packetPushedIn, packetPulledIn)))"
attr title "flow specific incoming packet lengths"
attr unit b
bin	-inf	0
bin	0	0
bin	1	0
scalar AutomaticMultipathConfigurationShowcase.source.bridging.streamCoder.encoder outgoingPackets:count 947
attr recordingmode count
attr source "merge(packetPushedOut, packetPulledOut)"
attr title "outgoing packets, count"
attr unit pk
scalar AutomaticMultipathConfigurationShowcase.source.bridging.streamCoder.encoder outgoingPacketLengths:sum 9303328
attr interpolationmode none
attr recordingmode sum
attr source "packetLength(merge(packetPushedOut, packetPulledOut))"
attr title "outgoing packet lengths, sum"
attr unit b
statistic AutomaticMultipathConfigurationShowcase.source.bridging.streamCoder.encoder outgoingPacketLengths:histogram
field count 947
field mean 9824
field stddev 0
field min 9824
field max 9824
field sum 9303328
field sqrsum 91395894272
attr interpolationmode none
attr recordingmode histogram
attr source "packetLength(merge(packetPushedOut, packetPulledOut))"
attr title "outgoing packet lengths"
attr unit b
bin	-inf	0
bin	9823	0
bin	9824	947
bin	9825	0
scalar AutomaticMultipathConfigurationShowcase.source.bridging.streamCoder.encoder flowOutgoingPacketLengths:sum 0
attr interpolationmode none
attr recordingmode sum
attr source "packetLength(demuxFlow(merge(packetPushedOut, packetPulledOut)))"
attr title "flow specific outgoing packet lengths, sum"
attr unit b
statistic AutomaticMultipathConfigurationShowcase.source.bridging.streamCoder.encoder flowOutgoingPacketLengths:histogram
field count 0
field mean -nan
field stddev nan
field min nan
field max nan
field sum 0
field sqrsum 0
attr interpolationmode none
attr recordingmode histogram
attr source "packetLength(demuxFlow(merge(packetPushedOut, packetPulledOut)))"
attr title "flow specific outgoing packet lengths"
attr unit b
bin	-inf	0
bin	0	0
bin	1	0
scalar AutomaticMultipathConfigurationShowcase.source.bridging.streamCoder.encoder incomingPackets:count 947
attr recordingmode count
attr source "merge(packetPushedIn, packetPulledIn)"
attr title "incoming packets, count"
attr unit pk
scalar AutomaticMultipathConfigurationShowcase.source.bridging.streamCoder.encoder incomingPacketLengths:sum 9303328
attr interpolationmode none
attr recordingmode sum
attr source "packetLength(merge(packetPushedIn, packetPulledIn))"
attr title "incoming packet lengths, sum"
attr unit b
statistic AutomaticMultipathConfigurationShowcase.source.bridging.streamCoder.encoder incomingPacketLengths:histogram
field count 947
field mean 9824
field stddev 0
field min 9824
field max 9824
field sum 9303328
field sqrsum 91395894272
attr interpolationmode none
attr recordingmode histogram
attr source "packetLength(merge(packetPushedIn, packetPulledIn))"
attr title "incoming packet lengths"
attr unit b
bin	-inf	0
bin	9823	0
bin	9824	947
bin	9825	0
scalar AutomaticMultipathConfigurationShowcase.source.bridging.streamCoder.encoder flowIncomingPacketLengths:sum 0
attr interpolationmode none
attr recordingmode sum
attr source "packetLength(demuxFlow(merge(packetPushedIn, packetPulledIn)))"
attr title "flow specific incoming packet lengths, sum"
attr unit b
statistic AutomaticMultipathConfigurationShowcase.source.bridging.streamCoder.encoder flowIncomingPacketLengths:histogram
field count 0
field mean -nan
field stddev nan
field min nan
field max nan
field sum 0
field sqrsum 0
attr interpolationmode none
attr recordingmode histogram
attr source "packetLength(demuxFlow(merge(packetPushedIn, packetPulledIn)))"
attr title "flow specific incoming packet lengths"
attr unit b
bin	-inf	0
bin	0	0
bin	1	0
scalar AutomaticMultipathConfigurationShowcase.source.ethernet.macHeaderInserter outgoingPackets:count 947
attr recordingmode count
attr source "merge(packetPushedOut, packetPulledOut)"
attr title "outgoing packets, count"
attr unit pk
scalar AutomaticMultipathConfigurationShowcase.source.ethernet.macHeaderInserter outgoingPacketLengths:sum 9485152
attr interpolationmode none
attr recordingmode sum
attr source "packetLength(merge(packetPushedOut, packetPulledOut))"
attr title "outgoing packet lengths, sum"
attr unit b
statistic AutomaticMultipathConfigurationShowcase.source.ethernet.macHeaderInserter outgoingPacketLengths:histogram
field count 947
field mean 10016
field stddev 0
field min 10016
field max 10016
field sum 9485152
field sqrsum 95003282432
attr interpolationmode none
attr recordingmode histogram
attr source "packetLength(merge(packetPushedOut, packetPulledOut))"
attr title "outgoing packet lengths"
attr unit b
bin	-inf	0
bin	10015	0
bin	10016	947
bin	10017	0
scalar AutomaticMultipathConfigurationShowcase.source.ethernet.macHeaderInserter flowOutgoingPacketLengths:sum 0
attr interpolationmode none
attr recordingmode sum
attr source "packetLength(demuxFlow(merge(packetPushedOut, packetPulledOut)))"
attr title "flow specific outgoing packet lengths, sum"
attr unit b
statistic AutomaticMultipathConfigurationShowcase.source.ethernet.macHeaderInserter flowOutgoingPacketLengths:histogram
field count 0
field mean -nan
field stddev nan
field min nan
field max nan
field sum 0
field sqrsum 0
attr interpolationmode none
attr recordingmode histogram
attr source "packetLength(demuxFlow(merge(packetPushedOut, packetPulledOut)))"
attr title "flow specific outgoing packet lengths"
attr unit b
bin	-inf	0
bin	0	0
bin	1	0
scalar AutomaticMultipathConfigurationShowcase.source.ethernet.macHeaderInserter incomingPackets:count 947
attr recordingmode count
attr source "merge(packetPushedIn, packetPulledIn)"
attr title "incoming packets, count"
attr unit pk
scalar AutomaticMultipathConfigurationShowcase.source.ethernet.macHeaderInserter incomingPacketLengths:sum 9379088
attr interpolationmode none
attr recordingmode sum
attr source "packetLength(merge(packetPushedIn, packetPulledIn))"
attr title "incoming packet lengths, sum"
attr unit b
statistic AutomaticMultipathConfigurationShowcase.source.ethernet.macHeaderInserter incomingPacketLengths:histogram
field count 947
field mean 9904
field stddev 0
field min 9904
field max 9904
field sum 9379088
field sqrsum 92890487552
attr interpolationmode none
attr recordingmode histogram
attr source "packetLength(merge(packetPushedIn, packetPulledIn))"
attr title "incoming packet lengths"
attr unit b
bin	-inf	0
bin	9903	0
bin	9904	947
bin	9905	0
scalar AutomaticMultipathConfigurationShowcase.source.ethernet.macHeaderInserter flowIncomingPacketLengths:sum 0
attr interpolationmode none
attr recordingmode sum
attr source "packetLength(demuxFlow(merge(packetPushedIn, packetPulledIn)))"
attr title "flow specific incoming packet lengths, sum"
attr unit b
statistic AutomaticMultipathConfigurationShowcase.source.ethernet.macHeaderInserter flowIncomingPacketLengths:histogram
field count 0
field mean -nan
field stddev nan
field min nan
field max nan
field sum 0
field sqrsum 0
attr interpolationmode none
attr recordingmode histogram
attr source "packetLength(demuxFlow(merge(packetPushedIn, packetPulledIn)))"
attr title "flow specific incoming packet lengths"
attr unit b
bin	-inf	0
bin	0	0
bin	1	0
scalar AutomaticMultipathConfigurationShowcase.source.ethernet.paddingInserter outgoingPackets:count 947
attr recordingmode count
attr source "merge(packetPushedOut, packetPulledOut)"
attr title "outgoing packets, count"
attr unit pk
scalar AutomaticMultipathConfigurationShowcase.source.ethernet.paddingInserter outgoingPacketLengths:sum 9485152
attr interpolationmode none
attr recordingmode sum
attr source "packetLength(merge(packetPushedOut, packetPulledOut))"
attr title "outgoing packet lengths, sum"
attr unit b
statistic AutomaticMultipathConfigurationShowcase.source.ethernet.paddingInserter outgoingPacketLengths:histogram
field count 947
field mean 10016
field stddev 0
field min 10016
field max 10016
field sum 9485152
field sqrsum 95003282432
attr interpolationmode none
attr recordingmode histogram
attr source "packetLength(merge(packetPushedOut, packetPulledOut))"
attr title "outgoing packet lengths"
attr unit b
bin	-inf	0
bin	10015	0
bin	10016	947
bin	10017	0
scalar AutomaticMultipathConfigurationShowcase.source.ethernet.paddingInserter flowOutgoingPacketLengths:sum 0
attr interpolationmode none
attr recordingmode sum
attr source "packetLength(demuxFlow(merge(packetPushedOut, packetPulledOut)))"
attr title "flow specific outgoing packet lengths, sum"
attr unit b
statistic AutomaticMultipathConfigurationShowcase.source.ethernet.paddingInserter flowOutgoingPacketLengths:histogram
field count 0
field mean -nan
field stddev nan
field min nan
field max nan
field sum 0
field sqrsum 0
attr interpolationmode none
attr recordingmode histogram
attr source "packetLength(demuxFlow(merge(packetPushedOut, packetPulledOut)))"
attr title "flow specific outgoing packet lengths"
attr unit b
bin	-inf	0
bin	0	0
bin	1	0
scalar AutomaticMultipathConfigurationShowcase.source.ethernet.paddingInserter incomingPackets:count 947
attr recordingmode count
attr source "merge(packetPushedIn, packetPulledIn)"
attr title "incoming packets, count"
attr unit pk
scalar AutomaticMultipathConfigurationShowcase.source.ethernet.paddingInserter incomingPacketLengths:sum 9485152
attr interpolationmode none
attr recordingmode sum
attr source "packetLength(merge(packetPushedIn, packetPulledIn))"
attr title "incoming packet lengths, sum"
attr unit b
statistic AutomaticMultipathConfigurationShowcase.source.ethernet.paddingInserter incomingPacketLengths:histogram
field count 947
field mean 10016
field stddev 0
field min 10016
field max 10016
field sum 9485152
field sqrsum 95003282432
attr interpolationmode none
attr recordingmode histogram
attr source "packetLength(merge(packetPushedIn, packetPulledIn))"
attr title "incoming packet lengths"
attr unit b
bin	-inf	0
bin	10015	0
bin	10016	947
bin	10017	0
scalar AutomaticMultipathConfigurationShowcase.source.ethernet.paddingInserter flowIncomingPacketLengths:sum 0
attr interpolationmode none
attr recordingmode sum
attr source "packetLength(demuxFlow(merge(packetPushedIn, packetPulledIn)))"
attr title "flow specific incoming packet lengths, sum"
attr unit b
statistic AutomaticMultipathConfigurationShowcase.source.ethernet.paddingInserter flowIncomingPacketLengths:histogram
field count 0
field mean -nan
field stddev nan
field min nan
field max nan
field sum 0
field sqrsum 0
attr interpolationmode none
attr recordingmode histogram
attr source "packetLength(demuxFlow(merge(packetPushedIn, packetPulledIn)))"
attr title "flow specific incoming packet lengths"
attr unit b
bin	-inf	0
bin	0	0
bin	1	0
scalar AutomaticMultipathConfigurationShowcase.source.ethernet.fcsInserter outgoingPackets:count 947
attr recordingmode count
attr source "merge(packetPushedOut, packetPulledOut)"
attr title "outgoing packets, count"
attr unit pk
scalar AutomaticMultipathConfigurationShowcase.source.ethernet.fcsInserter outgoingPacketLengths:sum 9515456
attr interpolationmode none
attr recordingmode sum
attr source "packetLength(merge(packetPushedOut, packetPulledOut))"
attr title "outgoing packet lengths, sum"
attr unit b
statistic AutomaticMultipathConfigurationShowcase.source.ethernet.fcsInserter outgoingPacketLengths:histogram
field count 947
field mean 10048
field stddev 0
field min 10048
field max 10048
field sum 9515456
field sqrsum 95611301888
attr interpolationmode none
attr recordingmode histogram
attr source "packetLength(merge(packetPushedOut, packetPulledOut))"
attr title "outgoing packet lengths"
attr unit b
bin	-inf	0
bin	10047	0
bin	10048	947
bin	10049	0
scalar AutomaticMultipathConfigurationShowcase.source.ethernet.fcsInserter flowOutgoingPacketLengths:sum 0
attr interpolationmode none
attr recordingmode sum
attr source "packetLength(demuxFlow(merge(packetPushedOut, packetPulledOut)))"
attr title "flow specific outgoing packet lengths, sum"
attr unit b
statistic AutomaticMultipathConfigurationShowcase.source.ethernet.fcsInserter flowOutgoingPacketLengths:histogram
field count 0
field mean -nan
field stddev nan
field min nan
field max nan
field sum 0
field sqrsum 0
attr interpolationmode none
attr recordingmode histogram
attr source "packetLength(demuxFlow(merge(packetPushedOut, packetPulledOut)))"
attr title "flow specific outgoing packet lengths"
attr unit b
bin	-inf	0
bin	0	0
bin	1	0
scalar AutomaticMultipathConfigurationShowcase.source.ethernet.fcsInserter incomingPackets:count 947
attr recordingmode count
attr source "merge(packetPushedIn, packetPulledIn)"
attr title "incoming packets, count"
attr unit pk
scalar AutomaticMultipathConfigurationShowcase.source.ethernet.fcsInserter incomingPacketLengths:sum 9485152
attr interpolationmode none
attr recordingmode sum
attr source "packetLength(merge(packetPushedIn, packetPulledIn))"
attr title "incoming packet lengths, sum"
attr unit b
statistic AutomaticMultipathConfigurationShowcase.source.ethernet.fcsInserter incomingPacketLengths:histogram
field count 947
field mean 10016
field stddev 0
field min 10016
field max 10016
field sum 9485152
field sqrsum 95003282432
attr interpolationmode none
attr recordingmode histogram
attr source "packetLength(merge(packetPushedIn, packetPulledIn))"
attr title "incoming packet lengths"
attr unit b
bin	-inf	0
bin	10015	0
bin	10016	947
bin	10017	0
scalar AutomaticMultipathConfigurationShowcase.source.ethernet.fcsInserter flowIncomingPacketLengths:sum 0
attr interpolationmode none
attr recordingmode sum
attr source "packetLength(demuxFlow(merge(packetPushedIn, packetPulledIn)))"
attr title "flow specific incoming packet lengths, sum"
attr unit b
statistic AutomaticMultipathConfigurationShowcase.source.ethernet.fcsInserter flowIncomingPacketLengths:histogram
field count 0
field mean -nan
field stddev nan
field min nan
field max nan
field sum 0
field sqrsum 0
attr interpolationmode none
attr recordingmode histogram
attr source "packetLength(demuxFlow(merge(packetPushedIn, packetPulledIn)))"
attr title "flow specific incoming packet lengths"
attr unit b
bin	-inf	0
bin	0	0
bin	1	0
scalar AutomaticMultipathConfigurationShowcase.source.ethernet.macHeaderChecker outgoingPackets:count 0
attr recordingmode count
attr source "merge(packetPushedOut, packetPulledOut)"
attr title "outgoing packets, count"
attr unit pk
scalar AutomaticMultipathConfigurationShowcase.source.ethernet.macHeaderChecker outgoingPacketLengths:sum 0
attr interpolationmode none
attr recordingmode sum
attr source "packetLength(merge(packetPushedOut, packetPulledOut))"
attr title "outgoing packet lengths, sum"
attr unit b
statistic AutomaticMultipathConfigurationShowcase.source.ethernet.macHeaderChecker outgoingPacketLengths:histogram
field count 0
field mean -nan
field stddev nan
field min nan
field max nan
field sum 0
field sqrsum 0
attr interpolationmode none
attr recordingmode histogram
attr source "packetLength(merge(packetPushedOut, packetPulledOut))"
attr title "outgoing packet lengths"
attr unit b
bin	-inf	0
bin	0	0
bin	1	0
scalar AutomaticMultipathConfigurationShowcase.source.ethernet.macHeaderChecker flowOutgoingPacketLengths:sum 0
attr interpolationmode none
attr recordingmode sum
attr source "packetLength(demuxFlow(merge(packetPushedOut, packetPulledOut)))"
attr title "flow specific outgoing packet lengths, sum"
attr unit b
statistic AutomaticMultipathConfigurationShowcase.source.ethernet.macHeaderChecker flowOutgoingPacketLengths:histogram
field count 0
field mean -nan
field stddev nan
field min nan
field max nan
field sum 0
field sqrsum 0
attr interpolationmode none
attr recordingmode histogram
attr source "packetLength(demuxFlow(merge(packetPushedOut, packetPulledOut)))"
attr title "flow specific outgoing packet lengths"
attr unit b
bin	-inf	0
bin	0	0
bin	1	0
scalar AutomaticMultipathConfigurationShowcase.source.ethernet.macHeaderChecker incomingPackets:count 0
attr recordingmode count
attr source "merge(packetPushedIn, packetPulledIn)"
attr title "incoming packets, count"
attr unit pk
scalar AutomaticMultipathConfigurationShowcase.source.ethernet.macHeaderChecker incomingPacketLengths:sum 0
attr interpolationmode none
attr recordingmode sum
attr source "packetLength(merge(packetPushedIn, packetPulledIn))"
attr title "incoming packet lengths, sum"
attr unit b
statistic AutomaticMultipathConfigurationShowcase.source.ethernet.macHeaderChecker incomingPacketLengths:histogram
field count 0
field mean -nan
field stddev nan
field min nan
field max nan
field sum 0
field sqrsum 0
attr interpolationmode none
attr recordingmode histogram
attr source "packetLength(merge(packetPushedIn, packetPulledIn))"
attr title "incoming packet lengths"
attr unit b
bin	-inf	0
bin	0	0
bin	1	0
scalar AutomaticMultipathConfigurationShowcase.source.ethernet.macHeaderChecker flowIncomingPacketLengths:sum 0
attr interpolationmode none
attr recordingmode sum
attr source "packetLength(demuxFlow(merge(packetPushedIn, packetPulledIn)))"
attr title "flow specific incoming packet lengths, sum"
attr unit b
statistic AutomaticMultipathConfigurationShowcase.source.ethernet.macHeaderChecker flowIncomingPacketLengths:histogram
field count 0
field mean -nan
field stddev nan
field min nan
field max nan
field sum 0
field sqrsum 0
attr interpolationmode none
attr recordingmode histogram
attr source "packetLength(demuxFlow(merge(packetPushedIn, packetPulledIn)))"
attr title "flow specific incoming packet lengths"
attr unit b
bin	-inf	0
bin	0	0
bin	1	0
scalar AutomaticMultipathConfigurationShowcase.source.ethernet.macHeaderChecker droppedPackets:count 0
attr recordingmode count
attr source packetDropped
attr title "dropped packets, count"
attr unit pk
scalar AutomaticMultipathConfigurationShowcase.source.ethernet.macHeaderChecker droppedPacketLengths:sum 0
attr interpolationmode none
attr recordingmode sum
attr source packetLength(packetDropped)
attr title "dropped packet lengths, sum"
attr unit b
statistic AutomaticMultipathConfigurationShowcase.source.ethernet.macHeaderChecker droppedPacketLengths:histogram
field count 0
field mean -nan
field stddev nan
field min nan
field max nan
field sum 0
field sqrsum 0
attr interpolationmode none
attr recordingmode histogram
attr source packetLength(packetDropped)
attr title "dropped packet lengths"
attr unit b
bin	-inf	0
bin	0	0
bin	1	0
scalar AutomaticMultipathConfigurationShowcase.source.ethernet.macHeaderChecker flowDroppedPacketLengths:sum 0
attr interpolationmode none
attr recordingmode sum
attr source packetLength(demuxFlow(packetDropped))
attr title "flow specific dropped packet lengths, sum"
attr unit b
statistic AutomaticMultipathConfigurationShowcase.source.ethernet.macHeaderChecker flowDroppedPacketLengths:histogram
field count 0
field mean -nan
field stddev nan
field min nan
field max nan
field sum 0
field sqrsum 0
attr interpolationmode none
attr recordingmode histogram
attr source packetLength(demuxFlow(packetDropped))
attr title "flow specific dropped packet lengths"
attr unit b
bin	-inf	0
bin	0	0
bin	1	0
scalar AutomaticMultipathConfigurationShowcase.source.ethernet.fcsChecker outgoingPackets:count 0
attr recordingmode count
attr source "merge(packetPushedOut, packetPulledOut)"
attr title "outgoing packets, count"
attr unit pk
scalar AutomaticMultipathConfigurationShowcase.source.ethernet.fcsChecker outgoingPacketLengths:sum 0
attr interpolationmode none
attr recordingmode sum
attr source "packetLength(merge(packetPushedOut, packetPulledOut))"
attr title "outgoing packet lengths, sum"
attr unit b
statistic AutomaticMultipathConfigurationShowcase.source.ethernet.fcsChecker outgoingPacketLengths:histogram
field count 0
field mean -nan
field stddev nan
field min nan
field max nan
field sum 0
field sqrsum 0
attr interpolationmode none
attr recordingmode histogram
attr source "packetLength(merge(packetPushedOut, packetPulledOut))"
attr title "outgoing packet lengths"
attr unit b
bin	-inf	0
bin	0	0
bin	1	0
scalar AutomaticMultipathConfigurationShowcase.source.ethernet.fcsChecker flowOutgoingPacketLengths:sum 0
attr interpolationmode none
attr recordingmode sum
attr source "packetLength(demuxFlow(merge(packetPushedOut, packetPulledOut)))"
attr title "flow specific outgoing packet lengths, sum"
attr unit b
statistic AutomaticMultipathConfigurationShowcase.source.ethernet.fcsChecker flowOutgoingPacketLengths:histogram
field count 0
field mean -nan
field stddev nan
field min nan
field max nan
field sum 0
field sqrsum 0
attr interpolationmode none
attr recordingmode histogram
attr source "packetLength(demuxFlow(merge(packetPushedOut, packetPulledOut)))"
attr title "flow specific outgoing packet lengths"
attr unit b
bin	-inf	0
bin	0	0
bin	1	0
scalar AutomaticMultipathConfigurationShowcase.source.ethernet.fcsChecker incomingPackets:count 0
attr recordingmode count
attr source "merge(packetPushedIn, packetPulledIn)"
attr title "incoming packets, count"
attr unit pk
scalar AutomaticMultipathConfigurationShowcase.source.ethernet.fcsChecker incomingPacketLengths:sum 0
attr interpolationmode none
attr recordingmode sum
attr source "packetLength(merge(packetPushedIn, packetPulledIn))"
attr title "incoming packet lengths, sum"
attr unit b
statistic AutomaticMultipathConfigurationShowcase.source.ethernet.fcsChecker incomingPacketLengths:histogram
field count 0
field mean -nan
field stddev nan
field min nan
field max nan
field sum 0
field sqrsum 0
attr interpolationmode none
attr recordingmode histogram
attr source "packetLength(merge(packetPushedIn, packetPulledIn))"
attr title "incoming packet lengths"
attr unit b
bin	-inf	0
bin	0	0
bin	1	0
scalar AutomaticMultipathConfigurationShowcase.source.ethernet.fcsChecker flowIncomingPacketLengths:sum 0
attr interpolationmode none
attr recordingmode sum
attr source "packetLength(demuxFlow(merge(packetPushedIn, packetPulledIn)))"
attr title "flow specific incoming packet lengths, sum"
attr unit b
statistic AutomaticMultipathConfigurationShowcase.source.ethernet.fcsChecker flowIncomingPacketLengths:histogram
field count 0
field mean -nan
field stddev nan
field min nan
field max nan
field sum 0
field sqrsum 0
attr interpolationmode none
attr recordingmode histogram
attr source "packetLength(demuxFlow(merge(packetPushedIn, packetPulledIn)))"
attr title "flow specific incoming packet lengths"
attr unit b
bin	-inf	0
bin	0	0
bin	1	0
scalar AutomaticMultipathConfigurationShowcase.source.ethernet.fcsChecker droppedPackets:count 0
attr recordingmode count
attr source packetDropped
attr title "dropped packets, count"
attr unit pk
scalar AutomaticMultipathConfigurationShowcase.source.ethernet.fcsChecker droppedPacketLengths:sum 0
attr interpolationmode none
attr recordingmode sum
attr source packetLength(packetDropped)
attr title "dropped packet lengths, sum"
attr unit b
statistic AutomaticMultipathConfigurationShowcase.source.ethernet.fcsChecker droppedPacketLengths:histogram
field count 0
field mean -nan
field stddev nan
field min nan
field max nan
field sum 0
field sqrsum 0
attr interpolationmode none
attr recordingmode histogram
attr source packetLength(packetDropped)
attr title "dropped packet lengths"
attr unit b
bin	-inf	0
bin	0	0
bin	1	0
scalar AutomaticMultipathConfigurationShowcase.source.ethernet.fcsChecker flowDroppedPacketLengths:sum 0
attr interpolationmode none
attr recordingmode sum
attr source packetLength(demuxFlow(packetDropped))
attr title "flow specific dropped packet lengths, sum"
attr unit b
statistic AutomaticMultipathConfigurationShowcase.source.ethernet.fcsChecker flowDroppedPacketLengths:histogram
field count 0
field mean -nan
field stddev nan
field min nan
field max nan
field sum 0
field sqrsum 0
attr interpolationmode none
attr recordingmode histogram
attr source packetLength(demuxFlow(packetDropped))
attr title "flow specific dropped packet lengths"
attr unit b
bin	-inf	0
bin	0	0
bin	1	0
scalar AutomaticMultipathConfigurationShowcase.source.ieee8021q.qTagHeaderInserter outgoingPackets:count 947
attr recordingmode count
attr source "merge(packetPushedOut, packetPulledOut)"
attr title "outgoing packets, count"
attr unit pk
scalar AutomaticMultipathConfigurationShowcase.source.ieee8021q.qTagHeaderInserter outgoingPacketLengths:sum 9333632
attr interpolationmode none
attr recordingmode sum
attr source "packetLength(merge(packetPushedOut, packetPulledOut))"
attr title "outgoing packet lengths, sum"
attr unit b
statistic AutomaticMultipathConfigurationShowcase.source.ieee8021q.qTagHeaderInserter outgoingPacketLengths:histogram
field count 947
field mean 9856
field stddev 0
field min 9856
field max 9856
field sum 9333632
field sqrsum 91992276992
attr interpolationmode none
attr recordingmode histogram
attr source "packetLength(merge(packetPushedOut, packetPulledOut))"
attr title "outgoing packet lengths"
attr unit b
bin	-inf	0
bin	9855	0
bin	9856	947
bin	9857	0
scalar AutomaticMultipathConfigurationShowcase.source.ieee8021q.qTagHeaderInserter flowOutgoingPacketLengths:sum 0
attr interpolationmode none
attr recordingmode sum
attr source "packetLength(demuxFlow(merge(packetPushedOut, packetPulledOut)))"
attr title "flow specific outgoing packet lengths, sum"
attr unit b
statistic AutomaticMultipathConfigurationShowcase.source.ieee8021q.qTagHeaderInserter flowOutgoingPacketLengths:histogram
field count 0
field mean -nan
field stddev nan
field min nan
field max nan
field sum 0
field sqrsum 0
attr interpolationmode none
attr recordingmode histogram
attr source "packetLength(demuxFlow(merge(packetPushedOut, packetPulledOut)))"
attr title "flow specific outgoing packet lengths"
attr unit b
bin	-inf	0
bin	0	0
bin	1	0
scalar AutomaticMultipathConfigurationShowcase.source.ieee8021q.qTagHeaderInserter incomingPackets:count 947
attr recordingmode count
attr source "merge(packetPushedIn, packetPulledIn)"
attr title "incoming packets, count"
attr unit pk
scalar AutomaticMultipathConfigurationShowcase.source.ieee8021q.qTagHeaderInserter incomingPacketLengths:sum 9303328
attr interpolationmode none
attr recordingmode sum
attr source "packetLength(merge(packetPushedIn, packetPulledIn))"
attr title "incoming packet lengths, sum"
attr unit b
statistic AutomaticMultipathConfigurationShowcase.source.ieee8021q.qTagHeaderInserter incomingPacketLengths:histogram
field count 947
field mean 9824
field stddev 0
field min 9824
field max 9824
field sum 9303328
field sqrsum 91395894272
attr interpolationmode none
attr recordingmode histogram
attr source "packetLength(merge(packetPushedIn, packetPulledIn))"
attr title "incoming packet lengths"
attr unit b
bin	-inf	0
bin	9823	0
bin	9824	947
bin	9825	0
scalar AutomaticMultipathConfigurationShowcase.source.ieee8021q.qTagHeaderInserter flowIncomingPacketLengths:sum 0
attr interpolationmode none
attr recordingmode sum
attr source "packetLength(demuxFlow(merge(packetPushedIn, packetPulledIn)))"
attr title "flow specific incoming packet lengths, sum"
attr unit b
statistic AutomaticMultipathConfigurationShowcase.source.ieee8021q.qTagHeaderInserter flowIncomingPacketLengths:histogram
field count 0
field mean -nan
field stddev nan
field min nan
field max nan
field sum 0
field sqrsum 0
attr interpolationmode none
attr recordingmode histogram
attr source "packetLength(demuxFlow(merge(packetPushedIn, packetPulledIn)))"
attr title "flow specific incoming packet lengths"
attr unit b
bin	-inf	0
bin	0	0
bin	1	0
scalar AutomaticMultipathConfigurationShowcase.source.ieee8021q.qTagHeaderChecker outgoingPackets:count 0
attr recordingmode count
attr source "merge(packetPushedOut, packetPulledOut)"
attr title "outgoing packets, count"
attr unit pk
scalar AutomaticMultipathConfigurationShowcase.source.ieee8021q.qTagHeaderChecker outgoingPacketLengths:sum 0
attr interpolationmode none
attr recordingmode sum
attr source "packetLength(merge(packetPushedOut, packetPulledOut))"
attr title "outgoing packet lengths, sum"
attr unit b
statistic AutomaticMultipathConfigurationShowcase.source.ieee8021q.qTagHeaderChecker outgoingPacketLengths:histogram
field count 0
field mean -nan
field stddev nan
field min nan
field max nan
field sum 0
field sqrsum 0
attr interpolationmode none
attr recordingmode histogram
attr source "packetLength(merge(packetPushedOut, packetPulledOut))"
attr title "outgoing packet lengths"
attr unit b
bin	-inf	0
bin	0	0
bin	1	0
scalar AutomaticMultipathConfigurationShowcase.source.ieee8021q.qTagHeaderChecker flowOutgoingPacketLengths:sum 0
attr interpolationmode none
attr recordingmode sum
attr source "packetLength(demuxFlow(merge(packetPushedOut, packetPulledOut)))"
attr title "flow specific outgoing packet lengths, sum"
attr unit b
statistic AutomaticMultipathConfigurationShowcase.source.ieee8021q.qTagHeaderChecker flowOutgoingPacketLengths:histogram
field count 0
field mean -nan
field stddev nan
field min nan
field max nan
field sum 0
field sqrsum 0
attr interpolationmode none
attr recordingmode histogram
attr source "packetLength(demuxFlow(merge(packetPushedOut, packetPulledOut)))"
attr title "flow specific outgoing packet lengths"
attr unit b
bin	-inf	0
bin	0	0
bin	1	0
scalar AutomaticMultipathConfigurationShowcase.source.ieee8021q.qTagHeaderChecker incomingPackets:count 0
attr recordingmode count
attr source "merge(packetPushedIn, packetPulledIn)"
attr title "incoming packets, count"
attr unit pk
scalar AutomaticMultipathConfigurationShowcase.source.ieee8021q.qTagHeaderChecker incomingPacketLengths:sum 0
attr interpolationmode none
attr recordingmode sum
attr source "packetLength(merge(packetPushedIn, packetPulledIn))"
attr title "incoming packet lengths, sum"
attr unit b
statistic AutomaticMultipathConfigurationShowcase.source.ieee8021q.qTagHeaderChecker incomingPacketLengths:histogram
field count 0
field mean -nan
field stddev nan
field min nan
field max nan
field sum 0
field sqrsum 0
attr interpolationmode none
attr recordingmode histogram
attr source "packetLength(merge(packetPushedIn, packetPulledIn))"
attr title "incoming packet lengths"
attr unit b
bin	-inf	0
bin	0	0
bin	1	0
scalar AutomaticMultipathConfigurationShowcase.source.ieee8021q.qTagHeaderChecker flowIncomingPacketLengths:sum 0
attr interpolationmode none
attr recordingmode sum
attr source "packetLength(demuxFlow(merge(packetPushedIn, packetPulledIn)))"
attr title "flow specific incoming packet lengths, sum"
attr unit b
statistic AutomaticMultipathConfigurationShowcase.source.ieee8021q.qTagHeaderChecker flowIncomingPacketLengths:histogram
field count 0
field mean -nan
field stddev nan
field min nan
field max nan
field sum 0
field sqrsum 0
attr interpolationmode none
attr recordingmode histogram
attr source "packetLength(demuxFlow(merge(packetPushedIn, packetPulledIn)))"
attr title "flow specific incoming packet lengths"
attr unit b
bin	-inf	0
bin	0	0
bin	1	0
scalar AutomaticMultipathConfigurationShowcase.source.ieee8021q.qTagHeaderChecker droppedPackets:count 0
attr recordingmode count
attr source packetDropped
attr title "dropped packets, count"
attr unit pk
scalar AutomaticMultipathConfigurationShowcase.source.ieee8021q.qTagHeaderChecker droppedPacketLengths:sum 0
attr interpolationmode none
attr recordingmode sum
attr source packetLength(packetDropped)
attr title "dropped packet lengths, sum"
attr unit b
statistic AutomaticMultipathConfigurationShowcase.source.ieee8021q.qTagHeaderChecker droppedPacketLengths:histogram
field count 0
field mean -nan
field stddev nan
field min nan
field max nan
field sum 0
field sqrsum 0
attr interpolationmode none
attr recordingmode histogram
attr source packetLength(packetDropped)
attr title "dropped packet lengths"
attr unit b
bin	-inf	0
bin	0	0
bin	1	0
scalar AutomaticMultipathConfigurationShowcase.source.ieee8021q.qTagHeaderChecker flowDroppedPacketLengths:sum 0
attr interpolationmode none
attr recordingmode sum
attr source packetLength(demuxFlow(packetDropped))
attr title "flow specific dropped packet lengths, sum"
attr unit b
statistic AutomaticMultipathConfigurationShowcase.source.ieee8021q.qTagHeaderChecker flowDroppedPacketLengths:histogram
field count 0
field mean -nan
field stddev nan
field min nan
field max nan
field sum 0
field sqrsum 0
attr interpolationmode none
attr recordingmode histogram
attr source packetLength(demuxFlow(packetDropped))
attr title "flow specific dropped packet lengths"
attr unit b
bin	-inf	0
bin	0	0
bin	1	0
scalar AutomaticMultipathConfigurationShowcase.source.ieee8021r.rTagHeaderInserter outgoingPackets:count 947
attr recordingmode count
attr source "merge(packetPushedOut, packetPulledOut)"
attr title "outgoing packets, count"
attr unit pk
scalar AutomaticMultipathConfigurationShowcase.source.ieee8021r.rTagHeaderInserter outgoingPacketLengths:sum 9379088
attr interpolationmode none
attr recordingmode sum
attr source "packetLength(merge(packetPushedOut, packetPulledOut))"
attr title "outgoing packet lengths, sum"
attr unit b
statistic AutomaticMultipathConfigurationShowcase.source.ieee8021r.rTagHeaderInserter outgoingPacketLengths:histogram
field count 947
field mean 9904
field stddev 0
field min 9904
field max 9904
field sum 9379088
field sqrsum 92890487552
attr interpolationmode none
attr recordingmode histogram
attr source "packetLength(merge(packetPushedOut, packetPulledOut))"
attr title "outgoing packet lengths"
attr unit b
bin	-inf	0
bin	9903	0
bin	9904	947
bin	9905	0
scalar AutomaticMultipathConfigurationShowcase.source.ieee8021r.rTagHeaderInserter flowOutgoingPacketLengths:sum 0
attr interpolationmode none
attr recordingmode sum
attr source "packetLength(demuxFlow(merge(packetPushedOut, packetPulledOut)))"
attr title "flow specific outgoing packet lengths, sum"
attr unit b
statistic AutomaticMultipathConfigurationShowcase.source.ieee8021r.rTagHeaderInserter flowOutgoingPacketLengths:histogram
field count 0
field mean -nan
field stddev nan
field min nan
field max nan
field sum 0
field sqrsum 0
attr interpolationmode none
attr recordingmode histogram
attr source "packetLength(demuxFlow(merge(packetPushedOut, packetPulledOut)))"
attr title "flow specific outgoing packet lengths"
attr unit b
bin	-inf	0
bin	0	0
bin	1	0
scalar AutomaticMultipathConfigurationShowcase.source.ieee8021r.rTagHeaderInserter incomingPackets:count 947
attr recordingmode count
attr source "merge(packetPushedIn, packetPulledIn)"
attr title "incoming packets, count"
attr unit pk
scalar AutomaticMultipathConfigurationShowcase.source.ieee8021r.rTagHeaderInserter incomingPacketLengths:sum 9333632
attr interpolationmode none
attr recordingmode sum
attr source "packetLength(merge(packetPushedIn, packetPulledIn))"
attr title "incoming packet lengths, sum"
attr unit b
statistic AutomaticMultipathConfigurationShowcase.source.ieee8021r.rTagHeaderInserter incomingPacketLengths:histogram
field count 947
field mean 9856
field stddev 0
field min 9856
field max 9856
field sum 9333632
field sqrsum 91992276992
attr interpolationmode none
attr recordingmode histogram
attr source "packetLength(merge(packetPushedIn, packetPulledIn))"
attr title "incoming packet lengths"
attr unit b
bin	-inf	0
bin	9855	0
bin	9856	947
bin	9857	0
scalar AutomaticMultipathConfigurationShowcase.source.ieee8021r.rTagHeaderInserter flowIncomingPacketLengths:sum 0
attr interpolationmode none
attr recordingmode sum
attr source "packetLength(demuxFlow(merge(packetPushedIn, packetPulledIn)))"
attr title "flow specific incoming packet lengths, sum"
attr unit b
statistic AutomaticMultipathConfigurationShowcase.source.ieee8021r.rTagHeaderInserter flowIncomingPacketLengths:histogram
field count 0
field mean -nan
field stddev nan
field min nan
field max nan
field sum 0
field sqrsum 0
attr interpolationmode none
attr recordingmode histogram
attr source "packetLength(demuxFlow(merge(packetPushedIn, packetPulledIn)))"
attr title "flow specific incoming packet lengths"
attr unit b
bin	-inf	0
bin	0	0
bin	1	0
scalar AutomaticMultipathConfigurationShowcase.source.ieee8021r.rTagHeaderChecker outgoingPackets:count 0
attr recordingmode count
attr source "merge(packetPushedOut, packetPulledOut)"
attr title "outgoing packets, count"
attr unit pk
scalar AutomaticMultipathConfigurationShowcase.source.ieee8021r.rTagHeaderChecker outgoingPacketLengths:sum 0
attr interpolationmode none
attr recordingmode sum
attr source "packetLength(merge(packetPushedOut, packetPulledOut))"
attr title "outgoing packet lengths, sum"
attr unit b
statistic AutomaticMultipathConfigurationShowcase.source.ieee8021r.rTagHeaderChecker outgoingPacketLengths:histogram
field count 0
field mean -nan
field stddev nan
field min nan
field max nan
field sum 0
field sqrsum 0
attr interpolationmode none
attr recordingmode histogram
attr source "packetLength(merge(packetPushedOut, packetPulledOut))"
attr title "outgoing packet lengths"
attr unit b
bin	-inf	0
bin	0	0
bin	1	0
scalar AutomaticMultipathConfigurationShowcase.source.ieee8021r.rTagHeaderChecker flowOutgoingPacketLengths:sum 0
attr interpolationmode none
attr recordingmode sum
attr source "packetLength(demuxFlow(merge(packetPushedOut, packetPulledOut)))"
attr title "flow specific outgoing packet lengths, sum"
attr unit b
statistic AutomaticMultipathConfigurationShowcase.source.ieee8021r.rTagHeaderChecker flowOutgoingPacketLengths:histogram
field count 0
field mean -nan
field stddev nan
field min nan
field max nan
field sum 0
field sqrsum 0
attr interpolationmode none
attr recordingmode histogram
attr source "packetLength(demuxFlow(merge(packetPushedOut, packetPulledOut)))"
attr title "flow specific outgoing packet lengths"
attr unit b
bin	-inf	0
bin	0	0
bin	1	0
scalar AutomaticMultipathConfigurationShowcase.source.ieee8021r.rTagHeaderChecker incomingPackets:count 0
attr recordingmode count
attr source "merge(packetPushedIn, packetPulledIn)"
attr title "incoming packets, count"
attr unit pk
scalar AutomaticMultipathConfigurationShowcase.source.ieee8021r.rTagHeaderChecker incomingPacketLengths:sum 0
attr interpolationmode none
attr recordingmode sum
attr source "packetLength(merge(packetPushedIn, packetPulledIn))"
attr title "incoming packet lengths, sum"
attr unit b
statistic AutomaticMultipathConfigurationShowcase.source.ieee8021r.rTagHeaderChecker incomingPacketLengths:histogram
field count 0
field mean -nan
field stddev nan
field min nan
field max nan
field sum 0
field sqrsum 0
attr interpolationmode none
attr recordingmode histogram
attr source "packetLength(merge(packetPushedIn, packetPulledIn))"
attr title "incoming packet lengths"
attr unit b
bin	-inf	0
bin	0	0
bin	1	0
scalar AutomaticMultipathConfigurationShowcase.source.ieee8021r.rTagHeaderChecker flowIncomingPacketLengths:sum 0
attr interpolationmode none
attr recordingmode sum
attr source "packetLength(demuxFlow(merge(packetPushedIn, packetPulledIn)))"
attr title "flow specific incoming packet lengths, sum"
attr unit b
statistic AutomaticMultipathConfigurationShowcase.source.ieee8021r.rTagHeaderChecker flowIncomingPacketLengths:histogram
field count 0
field mean -nan
field stddev nan
field min nan
field max nan
field sum 0
field sqrsum 0
attr interpolationmode none
attr recordingmode histogram
attr source "packetLength(demuxFlow(merge(packetPushedIn, packetPulledIn)))"
attr title "flow specific incoming packet lengths"
attr unit b
bin	-inf	0
bin	0	0
bin	1	0
scalar AutomaticMultipathConfigurationShowcase.source.ieee8021r.rTagHeaderChecker droppedPackets:count 0
attr recordingmode count
attr source packetDropped
attr title "dropped packets, count"
attr unit pk
scalar AutomaticMultipathConfigurationShowcase.source.ieee8021r.rTagHeaderChecker droppedPacketLengths:sum 0
attr interpolationmode none
attr recordingmode sum
attr source packetLength(packetDropped)
attr title "dropped packet lengths, sum"
attr unit b
statistic AutomaticMultipathConfigurationShowcase.source.ieee8021r.rTagHeaderChecker droppedPacketLengths:histogram
field count 0
field mean -nan
field stddev nan
field min nan
field max nan
field sum 0
field sqrsum 0
attr interpolationmode none
attr recordingmode histogram
attr source packetLength(packetDropped)
attr title "dropped packet lengths"
attr unit b
bin	-inf	0
bin	0	0
bin	1	0
scalar AutomaticMultipathConfigurationShowcase.source.ieee8021r.rTagHeaderChecker flowDroppedPacketLengths:sum 0
attr interpolationmode none
attr recordingmode sum
attr source packetLength(demuxFlow(packetDropped))
attr title "flow specific dropped packet lengths, sum"
attr unit b
statistic AutomaticMultipathConfigurationShowcase.source.ieee8021r.rTagHeaderChecker flowDroppedPacketLengths:histogram
field count 0
field mean -nan
field stddev nan
field min nan
field max nan
field sum 0
field sqrsum 0
attr interpolationmode none
attr recordingmode histogram
attr source packetLength(demuxFlow(packetDropped))
attr title "flow specific dropped packet lengths"
attr unit b
bin	-inf	0
bin	0	0
bin	1	0
scalar AutomaticMultipathConfigurationShowcase.source.lo[0].lo rcvdPkFromHl:count 0
attr interpolationmode none
attr recordingmode count
attr source packetReceivedFromUpper
attr title "packets received from higher layer, count"
scalar AutomaticMultipathConfigurationShowcase.source.lo[0].lo rcvdPkFromHl:sum(packetBytes) 0
attr interpolationmode none
attr recordingmode sum(packetBytes)
attr source packetReceivedFromUpper
attr title "packets received from higher layer, sum(packetBytes)"
scalar AutomaticMultipathConfigurationShowcase.source.lo[0].lo passedUpPk:count 0
attr interpolationmode none
attr recordingmode count
attr source packetSentToUpper
attr title "packets passed to higher layer, count"
scalar AutomaticMultipathConfigurationShowcase.source.lo[0].lo passedUpPk:sum(packetBytes) 0
attr interpolationmode none
attr recordingmode sum(packetBytes)
attr source packetSentToUpper
attr title "packets passed to higher layer, sum(packetBytes)"
scalar AutomaticMultipathConfigurationShowcase.source.lo[0] packetDropInterfaceDown:count 0
attr interpolationmode none
attr recordingmode count
attr source packetDropReasonIsInterfaceDown(packetDropped)
attr title "packet drops: interface down, count"
scalar AutomaticMultipathConfigurationShowcase.source.lo[0] packetDropInterfaceDown:sum(packetBytes) 0
attr interpolationmode none
attr recordingmode sum(packetBytes)
attr source packetDropReasonIsInterfaceDown(packetDropped)
attr title "packet drops: interface down, sum(packetBytes)"
scalar AutomaticMultipathConfigurationShowcase.source.lo[0] packetDropNoCarrier:count 0
attr interpolationmode none
attr recordingmode count
attr source packetDropReasonIsNoCarrier(packetDropped)
attr title "packet drops: no carrier, count"
scalar AutomaticMultipathConfigurationShowcase.source.lo[0] packetDropNoCarrier:sum(packetBytes) 0
attr interpolationmode none
attr recordingmode sum(packetBytes)
attr source packetDropReasonIsNoCarrier(packetDropped)
attr title "packet drops: no carrier, sum(packetBytes)"
scalar AutomaticMultipathConfigurationShowcase.source.eth[0].macLayer.queue queueLength:last 0
attr autoWarmupFilter false
attr interpolationmode sample-hold
attr recordingmode last
attr source "warmup(atomic(constant0(packetPushEnded) + count(packetPushStarted) - count(packetPulled) - count(packetRemoved) - count(packetDropped)))"
attr title "queue length, last"
attr unit pk
scalar AutomaticMultipathConfigurationShowcase.source.eth[0].macLayer.queue queueLength:max 8
attr autoWarmupFilter false
attr interpolationmode sample-hold
attr recordingmode max
attr source "warmup(atomic(constant0(packetPushEnded) + count(packetPushStarted) - count(packetPulled) - count(packetRemoved) - count(packetDropped)))"
attr title "queue length, max"
attr unit pk
scalar AutomaticMultipathConfigurationShowcase.source.eth[0].macLayer.queue queueLength:timeavg 1.74139026789
attr autoWarmupFilter false
attr interpolationmode sample-hold
attr recordingmode timeavg
attr source "warmup(atomic(constant0(packetPushEnded) + count(packetPushStarted) - count(packetPulled) - count(packetRemoved) - count(packetDropped)))"
attr title "queue length, timeavg"
attr unit pk
scalar AutomaticMultipathConfigurationShowcase.source.eth[0].macLayer.queue queueBitLength:last 0
attr autoWarmupFilter false
attr interpolationmode sample-hold
attr recordingmode last
attr source "warmup(atomic(constant0(packetPushEnded) + sum(packetLength(packetPushStarted)) - sum(packetLength(packetPulled)) - sum(packetLength(packetRemoved)) - sum(packetLength(packetDropped))))"
attr title "queue bit length, last"
attr unit b
scalar AutomaticMultipathConfigurationShowcase.source.eth[0].macLayer.queue queueBitLength:max 80384
attr autoWarmupFilter false
attr interpolationmode sample-hold
attr recordingmode max
attr source "warmup(atomic(constant0(packetPushEnded) + sum(packetLength(packetPushStarted)) - sum(packetLength(packetPulled)) - sum(packetLength(packetRemoved)) - sum(packetLength(packetDropped))))"
attr title "queue bit length, max"
attr unit b
scalar AutomaticMultipathConfigurationShowcase.source.eth[0].macLayer.queue queueBitLength:timeavg 17497.489411759
attr autoWarmupFilter false
attr interpolationmode sample-hold
attr recordingmode timeavg
attr source "warmup(atomic(constant0(packetPushEnded) + sum(packetLength(packetPushStarted)) - sum(packetLength(packetPulled)) - sum(packetLength(packetRemoved)) - sum(packetLength(packetDropped))))"
attr title "queue bit length, timeavg"
attr unit b
statistic AutomaticMultipathConfigurationShowcase.source.eth[0].macLayer.queue queueingTime:histogram
field count 947
field mean 0.00018388492797149
field stddev 0.00016935065598651
field min 0
field max 0.000800142414
field sum 0.174139026789
field sqrsum 5.9152486268295e-05
attr interpolationmode none
attr recordingmode histogram
attr source queueingTime(packetPulled)
attr title "queueing times"
attr unit s
bin	-inf	0
bin	0	121
bin	1e-05	31
bin	2e-05	25
bin	3e-05	23
bin	4e-05	25
bin	5e-05	31
bin	6e-05	26
bin	7e-05	32
bin	8e-05	32
bin	9e-05	26
bin	0.0001	25
bin	0.00011	28
bin	0.00012	20
bin	0.00013	26
bin	0.00014	16
bin	0.00015	28
bin	0.00016	16
bin	0.00017	19
bin	0.00018	21
bin	0.00019	21
bin	0.0002	17
bin	0.00021	16
bin	0.00022	21
bin	0.00023	15
bin	0.00024	14
bin	0.00025	19
bin	0.00026	19
bin	0.00027	17
bin	0.00028	12
bin	0.00029	17
bin	0.0003	20
bin	0.00031	10
bin	0.00032	13
bin	0.00033	9
bin	0.00034	7
bin	0.00035	10
bin	0.00036	3
bin	0.00037	4
bin	0.00038	7
bin	0.00039	2
bin	0.0004	4
bin	0.00041	3
bin	0.00042	5
bin	0.00043	6
bin	0.00044	5
bin	0.00045	1
bin	0.00046	2
bin	0.00047	2
bin	0.00048	3
bin	0.00049	1
bin	0.0005	3
bin	0.00051	3
bin	0.00052	6
bin	0.00053	4
bin	0.00054	3
bin	0.00055	6
bin	0.00056	2
bin	0.00057	3
bin	0.00058	5
bin	0.00059	6
bin	0.0006	4
bin	0.00061	1
bin	0.00062	1
bin	0.00063	1
bin	0.00064	3
bin	0.00065	4
bin	0.00066	0
bin	0.00067	1
bin	0.00068	1
bin	0.00069	2
bin	0.0007	0
bin	0.00071	1
bin	0.00072	2
bin	0.00073	1
bin	0.00074	3
bin	0.00075	1
bin	0.00076	0
bin	0.00077	2
bin	0.00078	1
bin	0.00079	0
bin	0.0008	1
bin	0.00081	0
scalar AutomaticMultipathConfigurationShowcase.source.eth[0].macLayer.queue outgoingPackets:count 947
attr recordingmode count
attr source packetPulled
attr title "outgoing packets, count"
attr unit pk
scalar AutomaticMultipathConfigurationShowcase.source.eth[0].macLayer.queue outgoingPacketLengths:sum 9515456
attr interpolationmode none
attr recordingmode sum
attr source packetLength(packetPulled)
attr title "outgoing packet lengths, sum"
attr unit b
statistic AutomaticMultipathConfigurationShowcase.source.eth[0].macLayer.queue outgoingPacketLengths:histogram
field count 947
field mean 10048
field stddev 0
field min 10048
field max 10048
field sum 9515456
field sqrsum 95611301888
attr interpolationmode none
attr recordingmode histogram
attr source packetLength(packetPulled)
attr title "outgoing packet lengths"
attr unit b
bin	-inf	0
bin	10047	0
bin	10048	947
bin	10049	0
statistic AutomaticMultipathConfigurationShowcase.source.eth[0].macLayer.queue flowQueueingTime:histogram
field count 0
field mean -nan
field stddev nan
field min nan
field max nan
field sum 0
field sqrsum 0
attr interpolationmode none
attr recordingmode histogram
attr source queueingTime(demuxFlow(packetPulled))
attr title "flow queueing times"
attr unit s
bin	-inf	0
bin	0	0
bin	1	0
scalar AutomaticMultipathConfigurationShowcase.source.eth[0].macLayer.queue incomingPackets:count 947
attr recordingmode count
attr source packetPushStarted
attr title "incoming packets, count"
attr unit pk
scalar AutomaticMultipathConfigurationShowcase.source.eth[0].macLayer.queue incomingPacketLengths:sum 9515456
attr interpolationmode none
attr recordingmode sum
attr source packetLength(packetPushStarted)
attr title "incoming packet lengths, sum"
attr unit b
statistic AutomaticMultipathConfigurationShowcase.source.eth[0].macLayer.queue incomingPacketLengths:histogram
field count 947
field mean 10048
field stddev 0
field min 10048
field max 10048
field sum 9515456
field sqrsum 95611301888
attr interpolationmode none
attr recordingmode histogram
attr source packetLength(packetPushStarted)
attr title "incoming packet lengths"
attr unit b
bin	-inf	0
bin	10047	0
bin	10048	947
bin	10049	0
scalar AutomaticMultipathConfigurationShowcase.source.eth[0].macLayer.queue droppedPacketsQueueOverflow:count 0
attr interpolationmode none
attr recordingmode count
attr source packetDropReasonIsQueueOverflow(packetDropped)
attr title "dropped packets: queue overflow, count"
attr unit pk
scalar AutomaticMultipathConfigurationShowcase.source.eth[0].macLayer.queue droppedPacketLengthsQueueOverflow:sum 0
attr interpolationmode none
attr recordingmode sum
attr source packetLength(packetDropReasonIsQueueOverflow(packetDropped))
attr title "dropped packet lengths: queue overflow, sum"
attr unit b
scalar AutomaticMultipathConfigurationShowcase.source.eth[0].macLayer.server incomingPackets:count 947
attr recordingmode count
attr source packetPulled
attr title "incoming packets, count"
attr unit pk
scalar AutomaticMultipathConfigurationShowcase.source.eth[0].macLayer.server incomingPacketLengths:sum 9515456
attr interpolationmode none
attr recordingmode sum
attr source packetLength(packetPulled)
attr title "incoming packet lengths, sum"
attr unit b
statistic AutomaticMultipathConfigurationShowcase.source.eth[0].macLayer.server incomingPacketLengths:histogram
field count 947
field mean 10048
field stddev 0
field min 10048
field max 10048
field sum 9515456
field sqrsum 95611301888
attr interpolationmode none
attr recordingmode histogram
attr source packetLength(packetPulled)
attr title "incoming packet lengths"
attr unit b
bin	-inf	0
bin	10047	0
bin	10048	947
bin	10049	0
scalar AutomaticMultipathConfigurationShowcase.source.eth[0].macLayer.server outgoingPackets:count 947
attr recordingmode count
attr source packetPushed
attr title "outgoing packets, count"
attr unit pk
scalar AutomaticMultipathConfigurationShowcase.source.eth[0].macLayer.server outgoingPacketLengths:sum 9515456
attr interpolationmode none
attr recordingmode sum
attr source packetLength(packetPushed)
attr title "outgoing packet lengths, sum"
attr unit b
statistic AutomaticMultipathConfigurationShowcase.source.eth[0].macLayer.server outgoingPacketLengths:histogram
field count 947
field mean 10048
field stddev 0
field min 10048
field max 10048
field sum 9515456
field sqrsum 95611301888
attr interpolationmode none
attr recordingmode histogram
attr source packetLength(packetPushed)
attr title "outgoing packet lengths"
attr unit b
bin	-inf	0
bin	10047	0
bin	10048	947
bin	10049	0
scalar AutomaticMultipathConfigurationShowcase.source.eth[0].macLayer.outboundEmitter outgoingPackets:count 947
attr recordingmode count
attr source "merge(packetPushedOut, packetPulledOut)"
attr title "outgoing packets, count"
attr unit pk
scalar AutomaticMultipathConfigurationShowcase.source.eth[0].macLayer.outboundEmitter outgoingPacketLengths:sum 9515456
attr interpolationmode none
attr recordingmode sum
attr source "packetLength(merge(packetPushedOut, packetPulledOut))"
attr title "outgoing packet lengths, sum"
attr unit b
statistic AutomaticMultipathConfigurationShowcase.source.eth[0].macLayer.outboundEmitter outgoingPacketLengths:histogram
field count 947
field mean 10048
field stddev 0
field min 10048
field max 10048
field sum 9515456
field sqrsum 95611301888
attr interpolationmode none
attr recordingmode histogram
attr source "packetLength(merge(packetPushedOut, packetPulledOut))"
attr title "outgoing packet lengths"
attr unit b
bin	-inf	0
bin	10047	0
bin	10048	947
bin	10049	0
scalar AutomaticMultipathConfigurationShowcase.source.eth[0].macLayer.outboundEmitter flowOutgoingPacketLengths:sum 0
attr interpolationmode none
attr recordingmode sum
attr source "packetLength(demuxFlow(merge(packetPushedOut, packetPulledOut)))"
attr title "flow specific outgoing packet lengths, sum"
attr unit b
statistic AutomaticMultipathConfigurationShowcase.source.eth[0].macLayer.outboundEmitter flowOutgoingPacketLengths:histogram
field count 0
field mean -nan
field stddev nan
field min nan
field max nan
field sum 0
field sqrsum 0
attr interpolationmode none
attr recordingmode histogram
attr source "packetLength(demuxFlow(merge(packetPushedOut, packetPulledOut)))"
attr title "flow specific outgoing packet lengths"
attr unit b
bin	-inf	0
bin	0	0
bin	1	0
scalar AutomaticMultipathConfigurationShowcase.source.eth[0].macLayer.outboundEmitter incomingPackets:count 947
attr recordingmode count
attr source "merge(packetPushedIn, packetPulledIn)"
attr title "incoming packets, count"
attr unit pk
scalar AutomaticMultipathConfigurationShowcase.source.eth[0].macLayer.outboundEmitter incomingPacketLengths:sum 9515456
attr interpolationmode none
attr recordingmode sum
attr source "packetLength(merge(packetPushedIn, packetPulledIn))"
attr title "incoming packet lengths, sum"
attr unit b
statistic AutomaticMultipathConfigurationShowcase.source.eth[0].macLayer.outboundEmitter incomingPacketLengths:histogram
field count 947
field mean 10048
field stddev 0
field min 10048
field max 10048
field sum 9515456
field sqrsum 95611301888
attr interpolationmode none
attr recordingmode histogram
attr source "packetLength(merge(packetPushedIn, packetPulledIn))"
attr title "incoming packet lengths"
attr unit b
bin	-inf	0
bin	10047	0
bin	10048	947
bin	10049	0
scalar AutomaticMultipathConfigurationShowcase.source.eth[0].macLayer.outboundEmitter flowIncomingPacketLengths:sum 0
attr interpolationmode none
attr recordingmode sum
attr source "packetLength(demuxFlow(merge(packetPushedIn, packetPulledIn)))"
attr title "flow specific incoming packet lengths, sum"
attr unit b
statistic AutomaticMultipathConfigurationShowcase.source.eth[0].macLayer.outboundEmitter flowIncomingPacketLengths:histogram
field count 0
field mean -nan
field stddev nan
field min nan
field max nan
field sum 0
field sqrsum 0
attr interpolationmode none
attr recordingmode histogram
attr source "packetLength(demuxFlow(merge(packetPushedIn, packetPulledIn)))"
attr title "flow specific incoming packet lengths"
attr unit b
bin	-inf	0
bin	0	0
bin	1	0
scalar AutomaticMultipathConfigurationShowcase.source.eth[0].macLayer.fcsChecker outgoingPackets:count 0
attr recordingmode count
attr source "merge(packetPushedOut, packetPulledOut)"
attr title "outgoing packets, count"
attr unit pk
scalar AutomaticMultipathConfigurationShowcase.source.eth[0].macLayer.fcsChecker outgoingPacketLengths:sum 0
attr interpolationmode none
attr recordingmode sum
attr source "packetLength(merge(packetPushedOut, packetPulledOut))"
attr title "outgoing packet lengths, sum"
attr unit b
statistic AutomaticMultipathConfigurationShowcase.source.eth[0].macLayer.fcsChecker outgoingPacketLengths:histogram
field count 0
field mean -nan
field stddev nan
field min nan
field max nan
field sum 0
field sqrsum 0
attr interpolationmode none
attr recordingmode histogram
attr source "packetLength(merge(packetPushedOut, packetPulledOut))"
attr title "outgoing packet lengths"
attr unit b
bin	-inf	0
bin	0	0
bin	1	0
scalar AutomaticMultipathConfigurationShowcase.source.eth[0].macLayer.fcsChecker flowOutgoingPacketLengths:sum 0
attr interpolationmode none
attr recordingmode sum
attr source "packetLength(demuxFlow(merge(packetPushedOut, packetPulledOut)))"
attr title "flow specific outgoing packet lengths, sum"
attr unit b
statistic AutomaticMultipathConfigurationShowcase.source.eth[0].macLayer.fcsChecker flowOutgoingPacketLengths:histogram
field count 0
field mean -nan
field stddev nan
field min nan
field max nan
field sum 0
field sqrsum 0
attr interpolationmode none
attr recordingmode histogram
attr source "packetLength(demuxFlow(merge(packetPushedOut, packetPulledOut)))"
attr title "flow specific outgoing packet lengths"
attr unit b
bin	-inf	0
bin	0	0
bin	1	0
scalar AutomaticMultipathConfigurationShowcase.source.eth[0].macLayer.fcsChecker incomingPackets:count 0
attr recordingmode count
attr source "merge(packetPushedIn, packetPulledIn)"
attr title "incoming packets, count"
attr unit pk
scalar AutomaticMultipathConfigurationShowcase.source.eth[0].macLayer.fcsChecker incomingPacketLengths:sum 0
attr interpolationmode none
attr recordingmode sum
attr source "packetLength(merge(packetPushedIn, packetPulledIn))"
attr title "incoming packet lengths, sum"
attr unit b
statistic AutomaticMultipathConfigurationShowcase.source.eth[0].macLayer.fcsChecker incomingPacketLengths:histogram
field count 0
field mean -nan
field stddev nan
field min nan
field max nan
field sum 0
field sqrsum 0
attr interpolationmode none
attr recordingmode histogram
attr source "packetLength(merge(packetPushedIn, packetPulledIn))"
attr title "incoming packet lengths"
attr unit b
bin	-inf	0
bin	0	0
bin	1	0
scalar AutomaticMultipathConfigurationShowcase.source.eth[0].macLayer.fcsChecker flowIncomingPacketLengths:sum 0
attr interpolationmode none
attr recordingmode sum
attr source "packetLength(demuxFlow(merge(packetPushedIn, packetPulledIn)))"
attr title "flow specific incoming packet lengths, sum"
attr unit b
statistic AutomaticMultipathConfigurationShowcase.source.eth[0].macLayer.fcsChecker flowIncomingPacketLengths:histogram
field count 0
field mean -nan
field stddev nan
field min nan
field max nan
field sum 0
field sqrsum 0
attr interpolationmode none
attr recordingmode histogram
attr source "packetLength(demuxFlow(merge(packetPushedIn, packetPulledIn)))"
attr title "flow specific incoming packet lengths"
attr unit b
bin	-inf	0
bin	0	0
bin	1	0
scalar AutomaticMultipathConfigurationShowcase.source.eth[0].macLayer.fcsChecker droppedPackets:count 0
attr recordingmode count
attr source packetDropped
attr title "dropped packets, count"
attr unit pk
scalar AutomaticMultipathConfigurationShowcase.source.eth[0].macLayer.fcsChecker droppedPacketLengths:sum 0
attr interpolationmode none
attr recordingmode sum
attr source packetLength(packetDropped)
attr title "dropped packet lengths, sum"
attr unit b
statistic AutomaticMultipathConfigurationShowcase.source.eth[0].macLayer.fcsChecker droppedPacketLengths:histogram
field count 0
field mean -nan
field stddev nan
field min nan
field max nan
field sum 0
field sqrsum 0
attr interpolationmode none
attr recordingmode histogram
attr source packetLength(packetDropped)
attr title "dropped packet lengths"
attr unit b
bin	-inf	0
bin	0	0
bin	1	0
scalar AutomaticMultipathConfigurationShowcase.source.eth[0].macLayer.fcsChecker flowDroppedPacketLengths:sum 0
attr interpolationmode none
attr recordingmode sum
attr source packetLength(demuxFlow(packetDropped))
attr title "flow specific dropped packet lengths, sum"
attr unit b
statistic AutomaticMultipathConfigurationShowcase.source.eth[0].macLayer.fcsChecker flowDroppedPacketLengths:histogram
field count 0
field mean -nan
field stddev nan
field min nan
field max nan
field sum 0
field sqrsum 0
attr interpolationmode none
attr recordingmode histogram
attr source packetLength(demuxFlow(packetDropped))
attr title "flow specific dropped packet lengths"
attr unit b
bin	-inf	0
bin	0	0
bin	1	0
scalar AutomaticMultipathConfigurationShowcase.source.eth[0].macLayer.inboundEmitter outgoingPackets:count 0
attr recordingmode count
attr source "merge(packetPushedOut, packetPulledOut)"
attr title "outgoing packets, count"
attr unit pk
scalar AutomaticMultipathConfigurationShowcase.source.eth[0].macLayer.inboundEmitter outgoingPacketLengths:sum 0
attr interpolationmode none
attr recordingmode sum
attr source "packetLength(merge(packetPushedOut, packetPulledOut))"
attr title "outgoing packet lengths, sum"
attr unit b
statistic AutomaticMultipathConfigurationShowcase.source.eth[0].macLayer.inboundEmitter outgoingPacketLengths:histogram
field count 0
field mean -nan
field stddev nan
field min nan
field max nan
field sum 0
field sqrsum 0
attr interpolationmode none
attr recordingmode histogram
attr source "packetLength(merge(packetPushedOut, packetPulledOut))"
attr title "outgoing packet lengths"
attr unit b
bin	-inf	0
bin	0	0
bin	1	0
scalar AutomaticMultipathConfigurationShowcase.source.eth[0].macLayer.inboundEmitter flowOutgoingPacketLengths:sum 0
attr interpolationmode none
attr recordingmode sum
attr source "packetLength(demuxFlow(merge(packetPushedOut, packetPulledOut)))"
attr title "flow specific outgoing packet lengths, sum"
attr unit b
statistic AutomaticMultipathConfigurationShowcase.source.eth[0].macLayer.inboundEmitter flowOutgoingPacketLengths:histogram
field count 0
field mean -nan
field stddev nan
field min nan
field max nan
field sum 0
field sqrsum 0
attr interpolationmode none
attr recordingmode histogram
[...]
attr title "flow specific dropped packet lengths"
attr unit b
bin	-inf	0
bin	0	0
bin	1	0
scalar AutomaticMultipathConfigurationShowcase.destination.eth[1].phyLayer.inboundEmitter outgoingPackets:count 571
attr recordingmode count
attr source "merge(packetPushedOut, packetPulledOut)"
attr title "outgoing packets, count"
attr unit pk
scalar AutomaticMultipathConfigurationShowcase.destination.eth[1].phyLayer.inboundEmitter outgoingPacketLengths:sum 5773952
attr interpolationmode none
attr recordingmode sum
attr source "packetLength(merge(packetPushedOut, packetPulledOut))"
attr title "outgoing packet lengths, sum"
attr unit b
statistic AutomaticMultipathConfigurationShowcase.destination.eth[1].phyLayer.inboundEmitter outgoingPacketLengths:histogram
field count 571
field mean 10112
field stddev 0
field min 10112
field max 10112
field sum 5773952
field sqrsum 58386202624
attr interpolationmode none
attr recordingmode histogram
attr source "packetLength(merge(packetPushedOut, packetPulledOut))"
attr title "outgoing packet lengths"
attr unit b
bin	-inf	0
bin	10111	0
bin	10112	571
bin	10113	0
scalar AutomaticMultipathConfigurationShowcase.destination.eth[1].phyLayer.inboundEmitter flowOutgoingPacketLengths:sum 0
attr interpolationmode none
attr recordingmode sum
attr source "packetLength(demuxFlow(merge(packetPushedOut, packetPulledOut)))"
attr title "flow specific outgoing packet lengths, sum"
attr unit b
statistic AutomaticMultipathConfigurationShowcase.destination.eth[1].phyLayer.inboundEmitter flowOutgoingPacketLengths:histogram
field count 0
field mean -nan
field stddev nan
field min nan
field max nan
field sum 0
field sqrsum 0
attr interpolationmode none
attr recordingmode histogram
attr source "packetLength(demuxFlow(merge(packetPushedOut, packetPulledOut)))"
attr title "flow specific outgoing packet lengths"
attr unit b
bin	-inf	0
bin	0	0
bin	1	0
scalar AutomaticMultipathConfigurationShowcase.destination.eth[1].phyLayer.inboundEmitter incomingPackets:count 571
attr recordingmode count
attr source "merge(packetPushedIn, packetPulledIn)"
attr title "incoming packets, count"
attr unit pk
scalar AutomaticMultipathConfigurationShowcase.destination.eth[1].phyLayer.inboundEmitter incomingPacketLengths:sum 5773952
attr interpolationmode none
attr recordingmode sum
attr source "packetLength(merge(packetPushedIn, packetPulledIn))"
attr title "incoming packet lengths, sum"
attr unit b
statistic AutomaticMultipathConfigurationShowcase.destination.eth[1].phyLayer.inboundEmitter incomingPacketLengths:histogram
field count 571
field mean 10112
field stddev 0
field min 10112
field max 10112
field sum 5773952
field sqrsum 58386202624
attr interpolationmode none
attr recordingmode histogram
attr source "packetLength(merge(packetPushedIn, packetPulledIn))"
attr title "incoming packet lengths"
attr unit b
bin	-inf	0
bin	10111	0
bin	10112	571
bin	10113	0
scalar AutomaticMultipathConfigurationShowcase.destination.eth[1].phyLayer.inboundEmitter flowIncomingPacketLengths:sum 0
attr interpolationmode none
attr recordingmode sum
attr source "packetLength(demuxFlow(merge(packetPushedIn, packetPulledIn)))"
attr title "flow specific incoming packet lengths, sum"
attr unit b
statistic AutomaticMultipathConfigurationShowcase.destination.eth[1].phyLayer.inboundEmitter flowIncomingPacketLengths:histogram
field count 0
field mean -nan
field stddev nan
field min nan
field max nan
field sum 0
field sqrsum 0
attr interpolationmode none
attr recordingmode histogram
attr source "packetLength(demuxFlow(merge(packetPushedIn, packetPulledIn)))"
attr title "flow specific incoming packet lengths"
attr unit b
bin	-inf	0
bin	0	0
bin	1	0
statistic AutomaticMultipathConfigurationShowcase.destination.eth[1].phyLayer.receiver throughput:histogram
field count 6
field mean 58432567.525408
field stddev 6356596.852086
field min 47483702.823084
field max 66126795.968809
field sum 350595405.15245
field sqrsum 2.0688221303368e+16
attr interpolationmode linear
attr recordingmode histogram
attr source throughput(receptionEnded)
attr title throughput
attr unit bps
bin	-inf	0
bin	42500000	0
bin	43000000	0
bin	43500000	0
bin	44000000	0
bin	44500000	0
bin	45000000	0
bin	45500000	0
bin	46000000	0
bin	46500000	0
bin	47000000	1
bin	47500000	0
bin	48000000	0
bin	48500000	0
bin	49000000	0
bin	49500000	0
bin	50000000	0
bin	50500000	0
bin	51000000	0
bin	51500000	0
bin	52000000	0
bin	52500000	0
bin	53000000	0
bin	53500000	0
bin	54000000	0
bin	54500000	0
bin	55000000	0
bin	55500000	1
bin	56000000	0
bin	56500000	0
bin	57000000	0
bin	57500000	0
bin	58000000	0
bin	58500000	0
bin	59000000	1
bin	59500000	0
bin	60000000	1
bin	60500000	0
bin	61000000	0
bin	61500000	1
bin	62000000	0
bin	62500000	0
bin	63000000	0
bin	63500000	0
bin	64000000	0
bin	64500000	0
bin	65000000	0
bin	65500000	0
bin	66000000	1
bin	66500000	0
bin	67000000	0
bin	67500000	0
bin	68000000	0
bin	68500000	0
bin	69000000	0
bin	69500000	0
bin	70000000	0
bin	70500000	0
bin	71000000	0
statistic AutomaticMultipathConfigurationShowcase.destination.eth[1].phyLayer.receiver receptionTime:histogram
field count 571
field mean 0.00010112
field stddev 0
field min 0.00010112
field max 0.00010112
field sum 0.057739520000001
field sqrsum 5.8386202624e-06
attr interpolationmode none
attr recordingmode histogram
attr source packetDuration(receptionEnded)
attr title "reception time"
attr unit s
bin	-inf	0
bin	0	571
bin	0.01	0
bin	0.02	0
bin	0.03	0
bin	0.04	0
bin	0.05	0
bin	0.06	0
bin	0.07	0
bin	0.08	0
bin	0.09	0
bin	0.1	0
bin	0.11	0
bin	0.12	0
bin	0.13	0
bin	0.14	0
bin	0.15	0
bin	0.16	0
bin	0.17	0
bin	0.18	0
bin	0.19	0
bin	0.2	0
bin	0.21	0
bin	0.22	0
bin	0.23	0
bin	0.24	0
bin	0.25	0
bin	0.26	0
bin	0.27	0
bin	0.28	0
bin	0.29	0
bin	0.3	0
bin	0.31	0
bin	0.32	0
bin	0.33	0
bin	0.34	0
bin	0.35	0
bin	0.36	0
bin	0.37	0
bin	0.38	0
bin	0.39	0
bin	0.4	0
bin	0.41	0
bin	0.42	0
bin	0.43	0
bin	0.44	0
bin	0.45	0
bin	0.46	0
bin	0.47	0
bin	0.48	0
bin	0.49	0
bin	0.5	0
bin	0.51	0
statistic AutomaticMultipathConfigurationShowcase.destination.eth[1].phyLayer.receiver flowReceptionTime:histogram
field count 0
field mean -nan
field stddev nan
field min nan
field max nan
field sum 0
field sqrsum 0
attr interpolationmode none
attr recordingmode histogram
attr source packetDuration(demuxFlow(receptionEnded))
attr title "flow reception time"
attr unit s
bin	-inf	0
bin	0	0
bin	1	0
scalar AutomaticMultipathConfigurationShowcase.destination.eth[1] packetDropInterfaceDown:count 0
attr interpolationmode none
attr recordingmode count
attr source packetDropReasonIsInterfaceDown(packetDropped)
attr title "packet drops: interface down, count"
scalar AutomaticMultipathConfigurationShowcase.destination.eth[1] packetDropInterfaceDown:sum(packetBytes) 0
attr interpolationmode none
attr recordingmode sum(packetBytes)
attr source packetDropReasonIsInterfaceDown(packetDropped)
attr title "packet drops: interface down, sum(packetBytes)"
scalar AutomaticMultipathConfigurationShowcase.destination.eth[1] packetDropNoCarrier:count 0
attr interpolationmode none
attr recordingmode count
attr source packetDropReasonIsNoCarrier(packetDropped)
attr title "packet drops: no carrier, count"
scalar AutomaticMultipathConfigurationShowcase.destination.eth[1] packetDropNoCarrier:sum(packetBytes) 0
attr interpolationmode none
attr recordingmode sum(packetBytes)
attr source packetDropReasonIsNoCarrier(packetDropped)
attr title "packet drops: no carrier, sum(packetBytes)"
scalar AutomaticMultipathConfigurationShowcase.destination.ipv4.ip packetDropAddressResolutionFailed:count 0
attr interpolationmode none
attr recordingmode count
attr source packetDropReasonIsAddressResolutionFailed(packetDropped)
attr title "packet drop: address resolution failed, count"
scalar AutomaticMultipathConfigurationShowcase.destination.ipv4.ip packetDropAddressResolutionFailed:sum(packetBytes) 0
attr interpolationmode none
attr recordingmode sum(packetBytes)
attr source packetDropReasonIsAddressResolutionFailed(packetDropped)
attr title "packet drop: address resolution failed, sum(packetBytes)"
scalar AutomaticMultipathConfigurationShowcase.destination.ipv4.ip packetDropHopLimitReached:count 0
attr interpolationmode none
attr recordingmode count
attr source packetDropReasonIsHopLimitReached(packetDropped)
attr title "packet drop: hop limit reached, count"
scalar AutomaticMultipathConfigurationShowcase.destination.ipv4.ip packetDropHopLimitReached:sum(packetBytes) 0
attr interpolationmode none
attr recordingmode sum(packetBytes)
attr source packetDropReasonIsHopLimitReached(packetDropped)
attr title "packet drop: hop limit reached, sum(packetBytes)"
scalar AutomaticMultipathConfigurationShowcase.destination.ipv4.ip packetDropForwardingDisabled:count 0
attr interpolationmode none
attr recordingmode count
attr source packetDropReasonIsForwardingDisabled(packetDropped)
attr title "packet drop: forwarding disabled, count"
scalar AutomaticMultipathConfigurationShowcase.destination.ipv4.ip packetDropForwardingDisabled:sum(packetBytes) 0
attr interpolationmode none
attr recordingmode sum(packetBytes)
attr source packetDropReasonIsForwardingDisabled(packetDropped)
attr title "packet drop: forwarding disabled, sum(packetBytes)"
scalar AutomaticMultipathConfigurationShowcase.destination.ipv4.ip packetDropNoInterfaceFound:count 0
attr interpolationmode none
attr recordingmode count
attr source packetDropReasonIsNoInterfaceFound(packetDropped)
attr title "packet drop: no interface found, count"
scalar AutomaticMultipathConfigurationShowcase.destination.ipv4.ip packetDropNoInterfaceFound:sum(packetBytes) 0
attr interpolationmode none
attr recordingmode sum(packetBytes)
attr source packetDropReasonIsNoInterfaceFound(packetDropped)
attr title "packet drop: no interface found, sum(packetBytes)"
scalar AutomaticMultipathConfigurationShowcase.destination.ipv4.ip packetDropNoRouteFound:count 0
attr interpolationmode none
attr recordingmode count
attr source packetDropReasonIsNoRouteFound(packetDropped)
attr title "packet drop: no route found, count"
scalar AutomaticMultipathConfigurationShowcase.destination.ipv4.ip packetDropNoRouteFound:sum(packetBytes) 0
attr interpolationmode none
attr recordingmode sum(packetBytes)
attr source packetDropReasonIsNoRouteFound(packetDropped)
attr title "packet drop: no route found, sum(packetBytes)"
scalar AutomaticMultipathConfigurationShowcase.destination.ipv4.ip packetDropUndefined:count 0
attr interpolationmode none
attr recordingmode count
attr source packetDropReasonIsUndefined(packetDropped)
attr title "packet drop: undefined, count"
scalar AutomaticMultipathConfigurationShowcase.destination.ipv4.ip packetDropUndefined:sum(packetBytes) 0
attr interpolationmode none
attr recordingmode sum(packetBytes)
attr source packetDropReasonIsUndefined(packetDropped)
attr title "packet drop: undefined, sum(packetBytes)"
scalar AutomaticMultipathConfigurationShowcase.destination.udp packetReceived:count 616
attr interpolationmode none
attr recordingmode count
attr source packetReceived
attr title "packets received, count"
scalar AutomaticMultipathConfigurationShowcase.destination.udp packetReceived:sum(packetBytes) 744128
attr interpolationmode none
attr recordingmode sum(packetBytes)
attr source packetReceived
attr title "packets received, sum(packetBytes)"
scalar AutomaticMultipathConfigurationShowcase.destination.udp packetSent:count 0
attr interpolationmode none
attr recordingmode count
attr source packetSent
attr title "packets sent, count"
scalar AutomaticMultipathConfigurationShowcase.destination.udp packetSent:sum(packetBytes) 0
attr interpolationmode none
attr recordingmode sum(packetBytes)
attr source packetSent
attr title "packets sent, sum(packetBytes)"
scalar AutomaticMultipathConfigurationShowcase.destination.udp passedUpPk:count 616
attr interpolationmode none
attr recordingmode count
attr source packetSentToUpper
attr title "packets passed up, count"
scalar AutomaticMultipathConfigurationShowcase.destination.udp droppedPkWrongPort:count 0
attr interpolationmode none
attr recordingmode count
attr source packetDropReasonIsNoPortFound(packetDropped)
attr title "packets dropped (wrong port), count"
scalar AutomaticMultipathConfigurationShowcase.destination.udp droppedPkBadChecksum:count 0
attr interpolationmode none
attr recordingmode count
attr source packetDropReasonIsIncorrectlyReceived(packetDropped)
attr title "packets dropped (checksum error), count"
scalar AutomaticMultipathConfigurationShowcase.destination.app[0].sink packets:count 616
attr recordingmode count
attr source packetPushed
attr title "packets, count"
attr unit pk
scalar AutomaticMultipathConfigurationShowcase.destination.app[0].sink packetLengths:sum 5913600
attr interpolationmode none
attr recordingmode sum
attr source packetLength(packetPushed)
attr title "packet lengths, sum"
attr unit b
statistic AutomaticMultipathConfigurationShowcase.destination.app[0].sink packetLengths:histogram
field count 616
field mean 9600
field stddev 0
field min 9600
field max 9600
field sum 5913600
field sqrsum 56770560000
attr interpolationmode none
attr recordingmode histogram
attr source packetLength(packetPushed)
attr title "packet lengths"
attr unit b
bin	-inf	0
bin	9599	0
bin	9600	616
bin	9601	0
statistic AutomaticMultipathConfigurationShowcase.destination.app[0].sink meanBitLifeTimePerPacket:histogram
field count 616
field mean 0.00062426069610227
field stddev 0.00017904303102192
field min 0.00040468
field max 0.001286234358
field sum 0.384544588799
field sqrsum 0.0002597707629649
attr interpolationmode none
attr recordingmode histogram
attr source weightedMeanPerGroup(groupRegionsPerPacket(lifeTimePerRegion(packetPushed)))
attr title "mean bit life time per packet"
attr unit s
bin	-inf	0
bin	0.0003	0
bin	0.00032	0
bin	0.00034	0
bin	0.00036	0
bin	0.00038	0
bin	0.0004	66
bin	0.00042	19
bin	0.00044	20
bin	0.00046	28
bin	0.00048	31
bin	0.0005	42
bin	0.00052	30
bin	0.00054	28
bin	0.00056	35
bin	0.00058	32
bin	0.0006	25
bin	0.00062	24
bin	0.00064	22
bin	0.00066	24
bin	0.00068	17
bin	0.0007	26
bin	0.00072	17
bin	0.00074	17
bin	0.00076	13
bin	0.00078	9
bin	0.0008	14
bin	0.00082	10
bin	0.00084	8
bin	0.00086	1
bin	0.00088	2
bin	0.0009	6
bin	0.00092	7
bin	0.00094	3
bin	0.00096	2
bin	0.00098	6
bin	0.001	3
bin	0.00102	1
bin	0.00104	5
bin	0.00106	2
bin	0.00108	5
bin	0.0011	4
bin	0.00112	2
bin	0.00114	5
bin	0.00116	1
bin	0.00118	1
bin	0.0012	1
bin	0.00122	1
bin	0.00124	0
bin	0.00126	0
bin	0.00128	1
bin	0.0013	0
statistic AutomaticMultipathConfigurationShowcase.destination.app[0].sink packetJitter:histogram
field count 616
field mean 6.6917330519481e-07
field stddev 7.3800587576475e-05
field min -0.000298248689
field max 0.00040468
field sum 0.000412210756
field sqrsum 3.3498897773133e-06
attr interpolationmode none
attr recordingmode histogram
attr source jitter(weightedMeanPerGroup(groupRegionsPerPacket(lifeTimePerRegion(packetPushed))))
attr title "packet jitter"
attr unit s
bin	-inf	0
bin	-0.00036	0
bin	-0.00034	0
bin	-0.00032	0
bin	-0.0003	1
bin	-0.00028	0
bin	-0.00026	0
bin	-0.00024	0
bin	-0.00022	2
bin	-0.0002	3
bin	-0.00018	8
bin	-0.00016	6
bin	-0.00014	11
bin	-0.00012	21
bin	-0.0001	20
bin	-8e-05	43
bin	-6e-05	50
bin	-4e-05	73
bin	-2e-05	63
bin	0	85
bin	2e-05	46
bin	4e-05	58
bin	6e-05	49
bin	8e-05	31
bin	0.0001	19
bin	0.00012	9
bin	0.00014	10
bin	0.00016	4
bin	0.00018	2
bin	0.0002	0
bin	0.00022	1
bin	0.00024	0
bin	0.00026	0
bin	0.00028	0
bin	0.0003	0
bin	0.00032	0
bin	0.00034	0
bin	0.00036	0
bin	0.00038	0
bin	0.0004	1
bin	0.00042	0
bin	0.00044	0
bin	0.00046	0
bin	0.00048	0
bin	0.0005	0
bin	0.00052	0
bin	0.00054	0
bin	0.00056	0
statistic AutomaticMultipathConfigurationShowcase.destination.app[0].sink packetDelayDifferenceToMean:histogram
field count 616
field mean -5.088359027854e-05
field stddev 0.00017119215732239
field min -0.00068420058126
field max 0.00023311444612121
field sum -0.031344291611581
field sqrsum 1.9618564250081e-05
attr interpolationmode none
attr recordingmode histogram
attr source differenceToMean(weightedMeanPerGroup(groupRegionsPerPacket(lifeTimePerRegion(packetPushed))))
attr title "packet delay difference to mean"
attr unit s
bin	-inf	0
bin	-0.00069	1
bin	-0.00067	0
bin	-0.00065	0
bin	-0.00063	1
bin	-0.00061	1
bin	-0.00059	1
bin	-0.00057	4
bin	-0.00055	2
bin	-0.00053	5
bin	-0.00051	4
bin	-0.00049	4
bin	-0.00047	4
bin	-0.00045	1
bin	-0.00043	4
bin	-0.00041	3
bin	-0.00039	7
bin	-0.00037	4
bin	-0.00035	7
bin	-0.00033	4
bin	-0.00031	3
bin	-0.00029	4
bin	-0.00027	6
bin	-0.00025	8
bin	-0.00023	15
bin	-0.00021	13
bin	-0.00019	18
bin	-0.00017	16
bin	-0.00015	25
bin	-0.00013	19
bin	-0.00011	18
bin	-9e-05	27
bin	-7e-05	30
bin	-5e-05	33
bin	-3e-05	33
bin	-1e-05	30
bin	1e-05	29
bin	3e-05	34
bin	5e-05	35
bin	7e-05	43
bin	9e-05	18
bin	0.00011	23
bin	0.00013	34
bin	0.00015	33
bin	0.00017	6
bin	0.00019	1
bin	0.00021	4
bin	0.00023	1
bin	0.00025	0
bin	0.00027	0
bin	0.00029	0
bin	0.00031	0
bin	0.00033	0
bin	0.00035	0
statistic AutomaticMultipathConfigurationShowcase.destination.app[0].sink packetDelayVariation:histogram
field count 616
field mean 0.0001200836776559
field stddev 2.2894679813697e-05
field min 0
field max 0.00018082747282006
field sum 0.073971545436035
field sqrsum 9.2051375315693e-06
attr recordingmode histogram
attr source stddev(weightedMeanPerGroup(groupRegionsPerPacket(lifeTimePerRegion(packetPushed))))
attr title "packet delay variation"
attr unit s
bin	-inf	0
bin	0	1
bin	4e-06	0
bin	8e-06	0
bin	1.2e-05	0
bin	1.6e-05	0
bin	2e-05	0
bin	2.4e-05	1
bin	2.8e-05	0
bin	3.2e-05	0
bin	3.6e-05	0
bin	4e-05	0
bin	4.4e-05	0
bin	4.8e-05	0
bin	5.2e-05	1
bin	5.6e-05	0
bin	6e-05	0
bin	6.4e-05	0
bin	6.8e-05	0
bin	7.2e-05	0
bin	7.6e-05	0
bin	8e-05	0
bin	8.4e-05	1
bin	8.8e-05	0
bin	9.2e-05	4
bin	9.6e-05	6
bin	0.0001	20
bin	0.000104	69
bin	0.000108	179
bin	0.000112	102
bin	0.000116	104
bin	0.00012	29
bin	0.000124	2
bin	0.000128	5
bin	0.000132	5
bin	0.000136	3
bin	0.00014	2
bin	0.000144	6
bin	0.000148	3
bin	0.000152	2
bin	0.000156	3
bin	0.00016	1
bin	0.000164	4
bin	0.000168	4
bin	0.000172	3
bin	0.000176	41
bin	0.00018	15
bin	0.000184	0
scalar AutomaticMultipathConfigurationShowcase.destination.app[0].sink droppedPackets:count 616
attr recordingmode count
attr source packetDropped
attr title "dropped packets, count"
attr unit pk
scalar AutomaticMultipathConfigurationShowcase.destination.app[0].sink droppedPacketLengths:sum 5913600
attr interpolationmode none
attr recordingmode sum
attr source packetLength(packetDropped)
attr title "dropped packet lengths, sum"
attr unit b
statistic AutomaticMultipathConfigurationShowcase.destination.app[0].sink droppedPacketLengths:histogram
field count 616
field mean 9600
field stddev 0
field min 9600
field max 9600
field sum 5913600
field sqrsum 56770560000
attr interpolationmode none
attr recordingmode histogram
attr source packetLength(packetDropped)
attr title "dropped packet lengths"
attr unit b
bin	-inf	0
bin	9599	0
bin	9600	616
bin	9601	0
scalar AutomaticMultipathConfigurationShowcase.destination.app[0].io "packets sent" 0
scalar AutomaticMultipathConfigurationShowcase.destination.app[0].io "packets received" 616
scalar AutomaticMultipathConfigurationShowcase.destination.app[0].io packetReceived:count 616
attr interpolationmode none
attr recordingmode count
attr source packetReceived
attr title "packets received, count"
scalar AutomaticMultipathConfigurationShowcase.destination.app[0].io packetReceived:sum(packetBytes) 739200
attr interpolationmode none
attr recordingmode sum(packetBytes)
attr source packetReceived
attr title "packets received, sum(packetBytes)"
scalar AutomaticMultipathConfigurationShowcase.destination.app[0].io packetSent:count 0
attr interpolationmode none
attr recordingmode count
attr source packetSent
attr title "packets sent, count"
scalar AutomaticMultipathConfigurationShowcase.destination.app[0].io packetSent:sum(packetBytes) 0
attr interpolationmode none
attr recordingmode sum(packetBytes)
attr source packetSent
attr title "packets sent, sum(packetBytes)"

