version 3
run MixedLAN-0-20251118-11:41:09-109958
attr configname MixedLAN
attr datetime 20251118-11:41:09
attr datetimef 20251118-114109
attr experiment MixedLAN
attr inifile mixed.ini
attr iterationvars ""
attr iterationvarsd ""
attr iterationvarsf ""
attr measurement ""
attr network MixedLAN
attr processid 109958
attr repetition 0
attr replication #0
attr resultdir results
attr runnumber 0
attr seedset 0
config **.param-recording false
config image-path /home/zoli/Projects/OMNET/inet/images
config output-scalar-file results/mixed.ini-MixedLAN-#0.sca
config output-scalar-precision 17
config output-vector-file results/mixed.ini-MixedLAN-#0.vec
config output-vector-precision 17
config record-eventlog false
config sim-time-limit 120s
config network MixedLAN
config **.switchHostA.cli.destAddress "\"\""
config **.cli.reqLength intuniform(50,1400)*1B
config **.cli.respLength intWithUnit(truncnormal(3000B,3000B))
config **.cli.destAddress "\"switchHostA\""
config **.cli.sendInterval exponential(1s)
config **.switch*.bridging.typename MacRelayUnit
config sim-time-limit 120s
config **.vector-recording false
config description (abstract)

scalar MixedLAN.tap1 packetReceived:count 3953
scalar MixedLAN.tap1 packetReceived:sum(packetBytes) 4304247
scalar MixedLAN.tap2 packetReceived:count 3953
scalar MixedLAN.tap2 packetReceived:sum(packetBytes) 4304247
scalar MixedLAN.tap3 packetReceived:count 3953
scalar MixedLAN.tap3 packetReceived:sum(packetBytes) 4304247
scalar MixedLAN.tap4 packetReceived:count 3953
scalar MixedLAN.tap4 packetReceived:sum(packetBytes) 4304247
scalar MixedLAN.tap5 packetReceived:count 3953
scalar MixedLAN.tap5 packetReceived:sum(packetBytes) 4304247
scalar MixedLAN.tap6 packetReceived:count 3953
scalar MixedLAN.tap6 packetReceived:sum(packetBytes) 4304247
scalar MixedLAN.busHostA.cli packetReceived:count 369
scalar MixedLAN.busHostA.cli packetReceived:sum(packetBytes) 460658
scalar MixedLAN.busHostA.cli packetSent:count 117
scalar MixedLAN.busHostA.cli packetSent:sum(packetBytes) 86861
scalar MixedLAN.busHostA.srv packetReceived:count 0
scalar MixedLAN.busHostA.srv packetReceived:sum(packetBytes) 0
scalar MixedLAN.busHostA.srv packetSent:count 0
scalar MixedLAN.busHostA.srv packetSent:sum(packetBytes) 0
scalar MixedLAN.busHostA.encap pauseSent:count 0
scalar MixedLAN.busHostA.encap pauseSent:sum 0
scalar MixedLAN.busHostA.encap decapPk:count 369
scalar MixedLAN.busHostA.encap decapPk:sum(packetBytes) 461765
scalar MixedLAN.busHostA.encap encapPk:count 117
scalar MixedLAN.busHostA.encap encapPk:sum(packetBytes) 87212
scalar MixedLAN.busHostA.eth.queue queueLength:last 0
scalar MixedLAN.busHostA.eth.queue queueLength:max 1
scalar MixedLAN.busHostA.eth.queue queueLength:timeavg 1.5350021158333332e-05
scalar MixedLAN.busHostA.eth.queue queueBitLength:last 0
scalar MixedLAN.busHostA.eth.queue queueBitLength:max 8064
scalar MixedLAN.busHostA.eth.queue queueBitLength:timeavg 0.065041470575733326
scalar MixedLAN.busHostA.eth.queue outgoingPackets:count 117
scalar MixedLAN.busHostA.eth.queue outgoingPacketLengths:sum 714544
scalar MixedLAN.busHostA.eth.queue incomingPackets:count 117
scalar MixedLAN.busHostA.eth.queue incomingPacketLengths:sum 714544
scalar MixedLAN.busHostA.eth.queue droppedPacketsQueueOverflow:count 0
scalar MixedLAN.busHostA.eth.queue droppedPacketLengthsQueueOverflow:sum 0
scalar MixedLAN.busHostA.eth.mac "simulated time" 120
scalar MixedLAN.busHostA.eth.mac full-duplex 0
scalar MixedLAN.busHostA.eth.mac "frames/sec sent" 0.97499999999999998
scalar MixedLAN.busHostA.eth.mac "frames/sec rcvd" 3.0750000000000002
scalar MixedLAN.busHostA.eth.mac "bits/sec sent" 5954.5333333333338
scalar MixedLAN.busHostA.eth.mac "bits/sec rcvd" 31236.200000000001
scalar MixedLAN.busHostA.eth.mac "rx channel idle (%)" 97.203972158083332
scalar MixedLAN.busHostA.eth.mac "rx channel utilization (%)" 2.7958799999999999
scalar MixedLAN.busHostA.eth.mac "rx channel collision (%)" 0.00014784191666666665
scalar MixedLAN.busHostA.eth.mac collisions 53
scalar MixedLAN.busHostA.eth.mac backoffs 5
scalar MixedLAN.busHostA.eth.mac backoffSlotsGenerated:count 5
scalar MixedLAN.busHostA.eth.mac collision:count 53
scalar MixedLAN.busHostA.eth.mac rxPausePkUnits:count 0
scalar MixedLAN.busHostA.eth.mac rxPausePkUnits:sum 0
scalar MixedLAN.busHostA.eth.mac txPausePkUnits:count 0
scalar MixedLAN.busHostA.eth.mac txPausePkUnits:sum 0
scalar MixedLAN.busHostA.eth.mac rxPkOk:count 369
scalar MixedLAN.busHostA.eth.mac rxPkOk:sum(packetBytes) 468543
scalar MixedLAN.busHostA.eth.mac txPk:count 117
scalar MixedLAN.busHostA.eth.mac txPk:sum(packetBytes) 89318
scalar MixedLAN.busHostA.eth.mac packetReceivedFromUpper:count 117
scalar MixedLAN.busHostA.eth.mac packetReceivedFromUpper:sum(packetBytes) 89318
scalar MixedLAN.busHostA.eth.mac passedUpPk:count 369
scalar MixedLAN.busHostA.eth.mac passedUpPk:sum(packetBytes) 468543
scalar MixedLAN.busHostA.eth.mac packetDropIncorrectlyReceived:count 0
scalar MixedLAN.busHostA.eth.mac packetDropIncorrectlyReceived:sum(packetBytes) 0
scalar MixedLAN.busHostA.eth.mac packetDropInterfaceDown:count 0
scalar MixedLAN.busHostA.eth.mac packetDropInterfaceDown:sum(packetBytes) 0
scalar MixedLAN.busHostA.eth.mac packetDropNotAddressedToUs:count 3143
scalar MixedLAN.busHostA.eth.mac packetDropNotAddressedToUs:sum(packetBytes) 3606927
scalar MixedLAN.busHostA.eth packetDropInterfaceDown:count 0
scalar MixedLAN.busHostA.eth packetDropInterfaceDown:sum(packetBytes) 0
scalar MixedLAN.busHostA.eth packetDropNoCarrier:count 0
scalar MixedLAN.busHostA.eth packetDropNoCarrier:sum(packetBytes) 0
scalar MixedLAN.busHostB.cli packetReceived:count 418
scalar MixedLAN.busHostB.cli packetReceived:sum(packetBytes) 520218
scalar MixedLAN.busHostB.cli packetSent:count 135
scalar MixedLAN.busHostB.cli packetSent:sum(packetBytes) 99790
scalar MixedLAN.busHostB.srv packetReceived:count 0
scalar MixedLAN.busHostB.srv packetReceived:sum(packetBytes) 0
scalar MixedLAN.busHostB.srv packetSent:count 0
scalar MixedLAN.busHostB.srv packetSent:sum(packetBytes) 0
scalar MixedLAN.busHostB.encap pauseSent:count 0
scalar MixedLAN.busHostB.encap pauseSent:sum 0
scalar MixedLAN.busHostB.encap decapPk:count 418
scalar MixedLAN.busHostB.encap decapPk:sum(packetBytes) 521472
scalar MixedLAN.busHostB.encap encapPk:count 135
scalar MixedLAN.busHostB.encap encapPk:sum(packetBytes) 100195
scalar MixedLAN.busHostB.eth.queue queueLength:last 0
scalar MixedLAN.busHostB.eth.queue queueLength:max 1
scalar MixedLAN.busHostB.eth.queue queueLength:timeavg 2.2831049116666662e-05
scalar MixedLAN.busHostB.eth.queue queueBitLength:last 0
scalar MixedLAN.busHostB.eth.queue queueBitLength:max 8736
scalar MixedLAN.busHostB.eth.queue queueBitLength:timeavg 0.12365982082686666
scalar MixedLAN.busHostB.eth.queue outgoingPackets:count 135
scalar MixedLAN.busHostB.eth.queue outgoingPacketLengths:sum 821000
scalar MixedLAN.busHostB.eth.queue incomingPackets:count 135
scalar MixedLAN.busHostB.eth.queue incomingPacketLengths:sum 821000
scalar MixedLAN.busHostB.eth.queue droppedPacketsQueueOverflow:count 0
scalar MixedLAN.busHostB.eth.queue droppedPacketLengthsQueueOverflow:sum 0
scalar MixedLAN.busHostB.eth.mac "simulated time" 120
scalar MixedLAN.busHostB.eth.mac full-duplex 0
scalar MixedLAN.busHostB.eth.mac "frames/sec sent" 1.125
scalar MixedLAN.busHostB.eth.mac "frames/sec rcvd" 3.4833333333333334
scalar MixedLAN.busHostB.eth.mac "bits/sec sent" 6841.666666666667
scalar MixedLAN.busHostB.eth.mac "bits/sec rcvd" 35274.933333333334
scalar MixedLAN.busHostB.eth.mac "rx channel idle (%)" 97.203972157999999
scalar MixedLAN.busHostB.eth.mac "rx channel utilization (%)" 2.7958799999999999
scalar MixedLAN.busHostB.eth.mac "rx channel collision (%)" 0.000147842
scalar MixedLAN.busHostB.eth.mac collisions 53
scalar MixedLAN.busHostB.eth.mac backoffs 9
scalar MixedLAN.busHostB.eth.mac backoffSlotsGenerated:count 9
scalar MixedLAN.busHostB.eth.mac collision:count 53
scalar MixedLAN.busHostB.eth.mac rxPausePkUnits:count 0
scalar MixedLAN.busHostB.eth.mac rxPausePkUnits:sum 0
scalar MixedLAN.busHostB.eth.mac txPausePkUnits:count 0
scalar MixedLAN.busHostB.eth.mac txPausePkUnits:sum 0
scalar MixedLAN.busHostB.eth.mac rxPkOk:count 418
scalar MixedLAN.busHostB.eth.mac rxPkOk:sum(packetBytes) 529124
scalar MixedLAN.busHostB.eth.mac txPk:count 135
scalar MixedLAN.busHostB.eth.mac txPk:sum(packetBytes) 102625
scalar MixedLAN.busHostB.eth.mac packetReceivedFromUpper:count 135
scalar MixedLAN.busHostB.eth.mac packetReceivedFromUpper:sum(packetBytes) 102625
scalar MixedLAN.busHostB.eth.mac passedUpPk:count 418
scalar MixedLAN.busHostB.eth.mac passedUpPk:sum(packetBytes) 529124
scalar MixedLAN.busHostB.eth.mac packetDropIncorrectlyReceived:count 0
scalar MixedLAN.busHostB.eth.mac packetDropIncorrectlyReceived:sum(packetBytes) 0
scalar MixedLAN.busHostB.eth.mac packetDropInterfaceDown:count 0
scalar MixedLAN.busHostB.eth.mac packetDropInterfaceDown:sum(packetBytes) 0
scalar MixedLAN.busHostB.eth.mac packetDropNotAddressedToUs:count 3076
scalar MixedLAN.busHostB.eth.mac packetDropNotAddressedToUs:sum(packetBytes) 3533039
scalar MixedLAN.busHostB.eth packetDropInterfaceDown:count 0
scalar MixedLAN.busHostB.eth packetDropInterfaceDown:sum(packetBytes) 0
scalar MixedLAN.busHostB.eth packetDropNoCarrier:count 0
scalar MixedLAN.busHostB.eth packetDropNoCarrier:sum(packetBytes) 0
scalar MixedLAN.busHostC.cli packetReceived:count 379
scalar MixedLAN.busHostC.cli packetReceived:sum(packetBytes) 474139
scalar MixedLAN.busHostC.cli packetSent:count 121
scalar MixedLAN.busHostC.cli packetSent:sum(packetBytes) 86007
scalar MixedLAN.busHostC.srv packetReceived:count 0
scalar MixedLAN.busHostC.srv packetReceived:sum(packetBytes) 0
scalar MixedLAN.busHostC.srv packetSent:count 0
scalar MixedLAN.busHostC.srv packetSent:sum(packetBytes) 0
scalar MixedLAN.busHostC.encap pauseSent:count 0
scalar MixedLAN.busHostC.encap pauseSent:sum 0
scalar MixedLAN.busHostC.encap decapPk:count 379
scalar MixedLAN.busHostC.encap decapPk:sum(packetBytes) 475276
scalar MixedLAN.busHostC.encap encapPk:count 121
scalar MixedLAN.busHostC.encap encapPk:sum(packetBytes) 86370
scalar MixedLAN.busHostC.eth.queue queueLength:last 0
scalar MixedLAN.busHostC.eth.queue queueLength:max 1
scalar MixedLAN.busHostC.eth.queue queueLength:timeavg 2.2187062425e-05
scalar MixedLAN.busHostC.eth.queue queueBitLength:last 0
scalar MixedLAN.busHostC.eth.queue queueBitLength:max 7024
scalar MixedLAN.busHostC.eth.queue queueBitLength:timeavg 0.094276647162666663
scalar MixedLAN.busHostC.eth.queue outgoingPackets:count 121
scalar MixedLAN.busHostC.eth.queue outgoingPacketLengths:sum 708384
scalar MixedLAN.busHostC.eth.queue incomingPackets:count 121
scalar MixedLAN.busHostC.eth.queue incomingPacketLengths:sum 708384
scalar MixedLAN.busHostC.eth.queue droppedPacketsQueueOverflow:count 0
scalar MixedLAN.busHostC.eth.queue droppedPacketLengthsQueueOverflow:sum 0
scalar MixedLAN.busHostC.eth.mac "simulated time" 120
scalar MixedLAN.busHostC.eth.mac full-duplex 0
scalar MixedLAN.busHostC.eth.mac "frames/sec sent" 1.0083333333333333
scalar MixedLAN.busHostC.eth.mac "frames/sec rcvd" 3.1583333333333332
scalar MixedLAN.busHostC.eth.mac "bits/sec sent" 5903.1999999999998
scalar MixedLAN.busHostC.eth.mac "bits/sec rcvd" 32146.266666666666
scalar MixedLAN.busHostC.eth.mac "rx channel idle (%)" 97.203972308083337
scalar MixedLAN.busHostC.eth.mac "rx channel utilization (%)" 2.7958799999999999
scalar MixedLAN.busHostC.eth.mac "rx channel collision (%)" 0.00014769191666666668
scalar MixedLAN.busHostC.eth.mac collisions 53
scalar MixedLAN.busHostC.eth.mac backoffs 15
scalar MixedLAN.busHostC.eth.mac backoffSlotsGenerated:count 15
scalar MixedLAN.busHostC.eth.mac collision:count 53
scalar MixedLAN.busHostC.eth.mac rxPausePkUnits:count 0
scalar MixedLAN.busHostC.eth.mac rxPausePkUnits:sum 0
scalar MixedLAN.busHostC.eth.mac txPausePkUnits:count 0
scalar MixedLAN.busHostC.eth.mac txPausePkUnits:sum 0
scalar MixedLAN.busHostC.eth.mac rxPkOk:count 379
scalar MixedLAN.busHostC.eth.mac rxPkOk:sum(packetBytes) 482194
scalar MixedLAN.busHostC.eth.mac txPk:count 121
scalar MixedLAN.busHostC.eth.mac txPk:sum(packetBytes) 88548
scalar MixedLAN.busHostC.eth.mac packetReceivedFromUpper:count 121
scalar MixedLAN.busHostC.eth.mac packetReceivedFromUpper:sum(packetBytes) 88548
scalar MixedLAN.busHostC.eth.mac passedUpPk:count 379
scalar MixedLAN.busHostC.eth.mac passedUpPk:sum(packetBytes) 482194
scalar MixedLAN.busHostC.eth.mac packetDropIncorrectlyReceived:count 0
scalar MixedLAN.busHostC.eth.mac packetDropIncorrectlyReceived:sum(packetBytes) 0
scalar MixedLAN.busHostC.eth.mac packetDropInterfaceDown:count 0
scalar MixedLAN.busHostC.eth.mac packetDropInterfaceDown:sum(packetBytes) 0
scalar MixedLAN.busHostC.eth.mac packetDropNotAddressedToUs:count 3129
scalar MixedLAN.busHostC.eth.mac packetDropNotAddressedToUs:sum(packetBytes) 3594046
scalar MixedLAN.busHostC.eth packetDropInterfaceDown:count 0
scalar MixedLAN.busHostC.eth packetDropInterfaceDown:sum(packetBytes) 0
scalar MixedLAN.busHostC.eth packetDropNoCarrier:count 0
scalar MixedLAN.busHostC.eth packetDropNoCarrier:sum(packetBytes) 0
scalar MixedLAN.busHostD.cli packetReceived:count 474
scalar MixedLAN.busHostD.cli packetReceived:sum(packetBytes) 602452
scalar MixedLAN.busHostD.cli packetSent:count 137
scalar MixedLAN.busHostD.cli packetSent:sum(packetBytes) 102426
scalar MixedLAN.busHostD.srv packetReceived:count 0
scalar MixedLAN.busHostD.srv packetReceived:sum(packetBytes) 0
scalar MixedLAN.busHostD.srv packetSent:count 0
scalar MixedLAN.busHostD.srv packetSent:sum(packetBytes) 0
scalar MixedLAN.busHostD.encap pauseSent:count 0
scalar MixedLAN.busHostD.encap pauseSent:sum 0
scalar MixedLAN.busHostD.encap decapPk:count 474
scalar MixedLAN.busHostD.encap decapPk:sum(packetBytes) 603874
scalar MixedLAN.busHostD.encap encapPk:count 137
scalar MixedLAN.busHostD.encap encapPk:sum(packetBytes) 102837
scalar MixedLAN.busHostD.eth.queue queueLength:last 0
scalar MixedLAN.busHostD.eth.queue queueLength:max 1
scalar MixedLAN.busHostD.eth.queue queueLength:timeavg 1.6246318599999999e-05
scalar MixedLAN.busHostD.eth.queue queueBitLength:last 0
scalar MixedLAN.busHostD.eth.queue queueBitLength:max 10544
scalar MixedLAN.busHostD.eth.queue queueBitLength:timeavg 0.16040933313679998
scalar MixedLAN.busHostD.eth.queue outgoingPackets:count 137
scalar MixedLAN.busHostD.eth.queue outgoingPacketLengths:sum 842424
scalar MixedLAN.busHostD.eth.queue incomingPackets:count 137
scalar MixedLAN.busHostD.eth.queue incomingPacketLengths:sum 842424
scalar MixedLAN.busHostD.eth.queue droppedPacketsQueueOverflow:count 0
scalar MixedLAN.busHostD.eth.queue droppedPacketLengthsQueueOverflow:sum 0
scalar MixedLAN.busHostD.eth.mac "simulated time" 120
scalar MixedLAN.busHostD.eth.mac full-duplex 0
scalar MixedLAN.busHostD.eth.mac "frames/sec sent" 1.1416666666666666
scalar MixedLAN.busHostD.eth.mac "frames/sec rcvd" 3.9500000000000002
scalar MixedLAN.busHostD.eth.mac "bits/sec sent" 7020.1999999999998
scalar MixedLAN.busHostD.eth.mac "bits/sec rcvd" 40832.933333333334
scalar MixedLAN.busHostD.eth.mac "rx channel idle (%)" 97.203972341249994
scalar MixedLAN.busHostD.eth.mac "rx channel utilization (%)" 2.7958799999999999
scalar MixedLAN.busHostD.eth.mac "rx channel collision (%)" 0.00014765874999999999
scalar MixedLAN.busHostD.eth.mac collisions 53
scalar MixedLAN.busHostD.eth.mac backoffs 7
scalar MixedLAN.busHostD.eth.mac backoffSlotsGenerated:count 7
scalar MixedLAN.busHostD.eth.mac collision:count 53
scalar MixedLAN.busHostD.eth.mac rxPausePkUnits:count 0
scalar MixedLAN.busHostD.eth.mac rxPausePkUnits:sum 0
scalar MixedLAN.busHostD.eth.mac txPausePkUnits:count 0
scalar MixedLAN.busHostD.eth.mac txPausePkUnits:sum 0
scalar MixedLAN.busHostD.eth.mac rxPkOk:count 474
scalar MixedLAN.busHostD.eth.mac rxPkOk:sum(packetBytes) 612494
scalar MixedLAN.busHostD.eth.mac txPk:count 137
scalar MixedLAN.busHostD.eth.mac txPk:sum(packetBytes) 105303
scalar MixedLAN.busHostD.eth.mac packetReceivedFromUpper:count 137
scalar MixedLAN.busHostD.eth.mac packetReceivedFromUpper:sum(packetBytes) 105303
scalar MixedLAN.busHostD.eth.mac passedUpPk:count 474
scalar MixedLAN.busHostD.eth.mac passedUpPk:sum(packetBytes) 612494
scalar MixedLAN.busHostD.eth.mac packetDropIncorrectlyReceived:count 0
scalar MixedLAN.busHostD.eth.mac packetDropIncorrectlyReceived:sum(packetBytes) 0
scalar MixedLAN.busHostD.eth.mac packetDropInterfaceDown:count 0
scalar MixedLAN.busHostD.eth.mac packetDropInterfaceDown:sum(packetBytes) 0
scalar MixedLAN.busHostD.eth.mac packetDropNotAddressedToUs:count 3018
scalar MixedLAN.busHostD.eth.mac packetDropNotAddressedToUs:sum(packetBytes) 3446991
scalar MixedLAN.busHostD.eth packetDropInterfaceDown:count 0
scalar MixedLAN.busHostD.eth packetDropInterfaceDown:sum(packetBytes) 0
scalar MixedLAN.busHostD.eth packetDropNoCarrier:count 0
scalar MixedLAN.busHostD.eth packetDropNoCarrier:sum(packetBytes) 0
scalar MixedLAN.switchHostA.cli packetReceived:count 0
scalar MixedLAN.switchHostA.cli packetReceived:sum(packetBytes) 0
scalar MixedLAN.switchHostA.cli packetSent:count 0
scalar MixedLAN.switchHostA.cli packetSent:sum(packetBytes) 0
scalar MixedLAN.switchHostA.srv packetReceived:count 1203
scalar MixedLAN.switchHostA.srv packetReceived:sum(packetBytes) 874378
scalar MixedLAN.switchHostA.srv packetSent:count 3819
scalar MixedLAN.switchHostA.srv packetSent:sum(packetBytes) 4764243
scalar MixedLAN.switchHostA.encap pauseSent:count 0
scalar MixedLAN.switchHostA.encap pauseSent:sum 0
scalar MixedLAN.switchHostA.encap decapPk:count 1203
scalar MixedLAN.switchHostA.encap decapPk:sum(packetBytes) 877987
scalar MixedLAN.switchHostA.encap encapPk:count 3819
scalar MixedLAN.switchHostA.encap encapPk:sum(packetBytes) 4775700
scalar MixedLAN.switchHostA.eth.queue queueLength:last 0
scalar MixedLAN.switchHostA.eth.queue queueLength:max 9
scalar MixedLAN.switchHostA.eth.queue queueLength:timeavg 0.0059162510293249877
scalar MixedLAN.switchHostA.eth.queue queueBitLength:last 0
scalar MixedLAN.switchHostA.eth.queue queueBitLength:max 99136
scalar MixedLAN.switchHostA.eth.queue queueBitLength:timeavg 53.882667483317483
scalar MixedLAN.switchHostA.eth.queue outgoingPackets:count 3819
scalar MixedLAN.switchHostA.eth.queue outgoingPacketLengths:sum 38755536
scalar MixedLAN.switchHostA.eth.queue incomingPackets:count 3819
scalar MixedLAN.switchHostA.eth.queue incomingPacketLengths:sum 38755536
scalar MixedLAN.switchHostA.eth.queue droppedPacketsQueueOverflow:count 0
scalar MixedLAN.switchHostA.eth.queue droppedPacketLengthsQueueOverflow:sum 0
scalar MixedLAN.switchHostA.eth.mac "simulated time" 120
scalar MixedLAN.switchHostA.eth.mac full-duplex 1
scalar MixedLAN.switchHostA.eth.mac "frames/sec sent" 31.824999999999999
scalar MixedLAN.switchHostA.eth.mac "frames/sec rcvd" 10.025
scalar MixedLAN.switchHostA.eth.mac "bits/sec sent" 323034.66666666669
scalar MixedLAN.switchHostA.eth.mac "bits/sec rcvd" 59976.066666666666
scalar MixedLAN.switchHostA.eth.mac "rx channel idle (%)" 99.939382333333342
scalar MixedLAN.switchHostA.eth.mac "rx channel utilization (%)" 0.060617666666666667
scalar MixedLAN.switchHostA.eth.mac rxPausePkUnits:count 0
scalar MixedLAN.switchHostA.eth.mac rxPausePkUnits:sum 0
scalar MixedLAN.switchHostA.eth.mac txPausePkUnits:count 0
scalar MixedLAN.switchHostA.eth.mac txPausePkUnits:sum 0
scalar MixedLAN.switchHostA.eth.mac rxPkOk:count 1203
scalar MixedLAN.switchHostA.eth.mac rxPkOk:sum(packetBytes) 899641
scalar MixedLAN.switchHostA.eth.mac txPk:count 3819
scalar MixedLAN.switchHostA.eth.mac txPk:sum(packetBytes) 4845520
scalar MixedLAN.switchHostA.eth.mac packetReceivedFromUpper:count 3819
scalar MixedLAN.switchHostA.eth.mac packetReceivedFromUpper:sum(packetBytes) 4844442
scalar MixedLAN.switchHostA.eth.mac passedUpPk:count 1203
scalar MixedLAN.switchHostA.eth.mac passedUpPk:sum(packetBytes) 899641
scalar MixedLAN.switchHostA.eth.mac packetDropIncorrectlyReceived:count 0
scalar MixedLAN.switchHostA.eth.mac packetDropIncorrectlyReceived:sum(packetBytes) 0
scalar MixedLAN.switchHostA.eth.mac packetDropInterfaceDown:count 0
scalar MixedLAN.switchHostA.eth.mac packetDropInterfaceDown:sum(packetBytes) 0
scalar MixedLAN.switchHostA.eth.mac packetDropNotAddressedToUs:count 0
scalar MixedLAN.switchHostA.eth.mac packetDropNotAddressedToUs:sum(packetBytes) 0
scalar MixedLAN.switchHostA.eth packetDropInterfaceDown:count 0
scalar MixedLAN.switchHostA.eth packetDropInterfaceDown:sum(packetBytes) 0
scalar MixedLAN.switchHostA.eth packetDropNoCarrier:count 0
scalar MixedLAN.switchHostA.eth packetDropNoCarrier:sum(packetBytes) 0
scalar MixedLAN.switchHostB.cli packetReceived:count 337
scalar MixedLAN.switchHostB.cli packetReceived:sum(packetBytes) 420366
scalar MixedLAN.switchHostB.cli packetSent:count 108
scalar MixedLAN.switchHostB.cli packetSent:sum(packetBytes) 77785
scalar MixedLAN.switchHostB.srv packetReceived:count 0
scalar MixedLAN.switchHostB.srv packetReceived:sum(packetBytes) 0
scalar MixedLAN.switchHostB.srv packetSent:count 0
scalar MixedLAN.switchHostB.srv packetSent:sum(packetBytes) 0
scalar MixedLAN.switchHostB.encap pauseSent:count 0
scalar MixedLAN.switchHostB.encap pauseSent:sum 0
scalar MixedLAN.switchHostB.encap decapPk:count 337
scalar MixedLAN.switchHostB.encap decapPk:sum(packetBytes) 421377
scalar MixedLAN.switchHostB.encap encapPk:count 108
scalar MixedLAN.switchHostB.encap encapPk:sum(packetBytes) 78109
scalar MixedLAN.switchHostB.eth.queue queueLength:last 0
scalar MixedLAN.switchHostB.eth.queue queueLength:max 0
scalar MixedLAN.switchHostB.eth.queue queueLength:timeavg 0
scalar MixedLAN.switchHostB.eth.queue queueBitLength:last 0
scalar MixedLAN.switchHostB.eth.queue queueBitLength:max 0
scalar MixedLAN.switchHostB.eth.queue queueBitLength:timeavg 0
scalar MixedLAN.switchHostB.eth.queue outgoingPackets:count 108
scalar MixedLAN.switchHostB.eth.queue outgoingPacketLengths:sum 640424
scalar MixedLAN.switchHostB.eth.queue incomingPackets:count 108
scalar MixedLAN.switchHostB.eth.queue incomingPacketLengths:sum 640424
scalar MixedLAN.switchHostB.eth.queue droppedPacketsQueueOverflow:count 0
scalar MixedLAN.switchHostB.eth.queue droppedPacketLengthsQueueOverflow:sum 0
scalar MixedLAN.switchHostB.eth.mac "simulated time" 120
scalar MixedLAN.switchHostB.eth.mac full-duplex 1
scalar MixedLAN.switchHostB.eth.mac "frames/sec sent" 0.90000000000000002
scalar MixedLAN.switchHostB.eth.mac "frames/sec rcvd" 2.8083333333333331
scalar MixedLAN.switchHostB.eth.mac "bits/sec sent" 5336.8666666666668
scalar MixedLAN.switchHostB.eth.mac "bits/sec rcvd" 28503.400000000001
scalar MixedLAN.switchHostB.eth.mac "rx channel idle (%)" 99.971271666666667
scalar MixedLAN.switchHostB.eth.mac "rx channel utilization (%)" 0.028728333333333331
scalar MixedLAN.switchHostB.eth.mac rxPausePkUnits:count 0
scalar MixedLAN.switchHostB.eth.mac rxPausePkUnits:sum 0
scalar MixedLAN.switchHostB.eth.mac txPausePkUnits:count 0
scalar MixedLAN.switchHostB.eth.mac txPausePkUnits:sum 0
scalar MixedLAN.switchHostB.eth.mac rxPkOk:count 337
scalar MixedLAN.switchHostB.eth.mac rxPkOk:sum(packetBytes) 427551
scalar MixedLAN.switchHostB.eth.mac txPk:count 108
scalar MixedLAN.switchHostB.eth.mac txPk:sum(packetBytes) 80053
scalar MixedLAN.switchHostB.eth.mac packetReceivedFromUpper:count 108
scalar MixedLAN.switchHostB.eth.mac packetReceivedFromUpper:sum(packetBytes) 80053
scalar MixedLAN.switchHostB.eth.mac passedUpPk:count 337
scalar MixedLAN.switchHostB.eth.mac passedUpPk:sum(packetBytes) 427551
scalar MixedLAN.switchHostB.eth.mac packetDropIncorrectlyReceived:count 0
scalar MixedLAN.switchHostB.eth.mac packetDropIncorrectlyReceived:sum(packetBytes) 0
scalar MixedLAN.switchHostB.eth.mac packetDropInterfaceDown:count 0
scalar MixedLAN.switchHostB.eth.mac packetDropInterfaceDown:sum(packetBytes) 0
scalar MixedLAN.switchHostB.eth.mac packetDropNotAddressedToUs:count 1
scalar MixedLAN.switchHostB.eth.mac packetDropNotAddressedToUs:sum(packetBytes) 670
scalar MixedLAN.switchHostB.eth packetDropInterfaceDown:count 0
scalar MixedLAN.switchHostB.eth packetDropInterfaceDown:sum(packetBytes) 0
scalar MixedLAN.switchHostB.eth packetDropNoCarrier:count 0
scalar MixedLAN.switchHostB.eth packetDropNoCarrier:sum(packetBytes) 0
scalar MixedLAN.switchHostC.cli packetReceived:count 359
scalar MixedLAN.switchHostC.cli packetReceived:sum(packetBytes) 443977
scalar MixedLAN.switchHostC.cli packetSent:count 119
scalar MixedLAN.switchHostC.cli packetSent:sum(packetBytes) 83478
scalar MixedLAN.switchHostC.srv packetReceived:count 0
scalar MixedLAN.switchHostC.srv packetReceived:sum(packetBytes) 0
scalar MixedLAN.switchHostC.srv packetSent:count 0
scalar MixedLAN.switchHostC.srv packetSent:sum(packetBytes) 0
scalar MixedLAN.switchHostC.encap pauseSent:count 0
scalar MixedLAN.switchHostC.encap pauseSent:sum 0
scalar MixedLAN.switchHostC.encap decapPk:count 359
scalar MixedLAN.switchHostC.encap decapPk:sum(packetBytes) 445054
scalar MixedLAN.switchHostC.encap encapPk:count 119
scalar MixedLAN.switchHostC.encap encapPk:sum(packetBytes) 83835
scalar MixedLAN.switchHostC.eth.queue queueLength:last 0
scalar MixedLAN.switchHostC.eth.queue queueLength:max 0
scalar MixedLAN.switchHostC.eth.queue queueLength:timeavg 0
scalar MixedLAN.switchHostC.eth.queue queueBitLength:last 0
scalar MixedLAN.switchHostC.eth.queue queueBitLength:max 0
scalar MixedLAN.switchHostC.eth.queue queueBitLength:timeavg 0
scalar MixedLAN.switchHostC.eth.queue outgoingPackets:count 119
scalar MixedLAN.switchHostC.eth.queue outgoingPacketLengths:sum 687816
scalar MixedLAN.switchHostC.eth.queue incomingPackets:count 119
scalar MixedLAN.switchHostC.eth.queue incomingPacketLengths:sum 687816
scalar MixedLAN.switchHostC.eth.queue droppedPacketsQueueOverflow:count 0
scalar MixedLAN.switchHostC.eth.queue droppedPacketLengthsQueueOverflow:sum 0
scalar MixedLAN.switchHostC.eth.mac "simulated time" 120
scalar MixedLAN.switchHostC.eth.mac full-duplex 1
scalar MixedLAN.switchHostC.eth.mac "frames/sec sent" 0.9916666666666667
scalar MixedLAN.switchHostC.eth.mac "frames/sec rcvd" 2.9916666666666667
scalar MixedLAN.switchHostC.eth.mac "bits/sec sent" 5731.8000000000002
scalar MixedLAN.switchHostC.eth.mac "bits/sec rcvd" 30109.133333333335
scalar MixedLAN.switchHostC.eth.mac "rx channel idle (%)" 99.696541999999994
scalar MixedLAN.switchHostC.eth.mac "rx channel utilization (%)" 0.30345800000000001
scalar MixedLAN.switchHostC.eth.mac rxPausePkUnits:count 0
scalar MixedLAN.switchHostC.eth.mac rxPausePkUnits:sum 0
scalar MixedLAN.switchHostC.eth.mac txPausePkUnits:count 0
scalar MixedLAN.switchHostC.eth.mac txPausePkUnits:sum 0
scalar MixedLAN.switchHostC.eth.mac rxPkOk:count 359
scalar MixedLAN.switchHostC.eth.mac rxPkOk:sum(packetBytes) 451637
scalar MixedLAN.switchHostC.eth.mac txPk:count 119
scalar MixedLAN.switchHostC.eth.mac txPk:sum(packetBytes) 85977
scalar MixedLAN.switchHostC.eth.mac packetReceivedFromUpper:count 119
scalar MixedLAN.switchHostC.eth.mac packetReceivedFromUpper:sum(packetBytes) 85977
scalar MixedLAN.switchHostC.eth.mac passedUpPk:count 359
scalar MixedLAN.switchHostC.eth.mac passedUpPk:sum(packetBytes) 451637
scalar MixedLAN.switchHostC.eth.mac packetDropIncorrectlyReceived:count 0
scalar MixedLAN.switchHostC.eth.mac packetDropIncorrectlyReceived:sum(packetBytes) 0
scalar MixedLAN.switchHostC.eth.mac packetDropInterfaceDown:count 0
scalar MixedLAN.switchHostC.eth.mac packetDropInterfaceDown:sum(packetBytes) 0
scalar MixedLAN.switchHostC.eth.mac packetDropNotAddressedToUs:count 1
scalar MixedLAN.switchHostC.eth.mac packetDropNotAddressedToUs:sum(packetBytes) 670
scalar MixedLAN.switchHostC.eth packetDropInterfaceDown:count 0
scalar MixedLAN.switchHostC.eth packetDropInterfaceDown:sum(packetBytes) 0
scalar MixedLAN.switchHostC.eth packetDropNoCarrier:count 0
scalar MixedLAN.switchHostC.eth packetDropNoCarrier:sum(packetBytes) 0
scalar MixedLAN.switchHostD.cli packetReceived:count 357
scalar MixedLAN.switchHostD.cli packetReceived:sum(packetBytes) 444679
scalar MixedLAN.switchHostD.cli packetSent:count 113
scalar MixedLAN.switchHostD.cli packetSent:sum(packetBytes) 80526
scalar MixedLAN.switchHostD.srv packetReceived:count 0
scalar MixedLAN.switchHostD.srv packetReceived:sum(packetBytes) 0
scalar MixedLAN.switchHostD.srv packetSent:count 0
scalar MixedLAN.switchHostD.srv packetSent:sum(packetBytes) 0
scalar MixedLAN.switchHostD.encap pauseSent:count 0
scalar MixedLAN.switchHostD.encap pauseSent:sum 0
scalar MixedLAN.switchHostD.encap decapPk:count 357
scalar MixedLAN.switchHostD.encap decapPk:sum(packetBytes) 445750
scalar MixedLAN.switchHostD.encap encapPk:count 113
scalar MixedLAN.switchHostD.encap encapPk:sum(packetBytes) 80865
scalar MixedLAN.switchHostD.eth.queue queueLength:last 0
scalar MixedLAN.switchHostD.eth.queue queueLength:max 0
scalar MixedLAN.switchHostD.eth.queue queueLength:timeavg 0
scalar MixedLAN.switchHostD.eth.queue queueBitLength:last 0
scalar MixedLAN.switchHostD.eth.queue queueBitLength:max 0
scalar MixedLAN.switchHostD.eth.queue queueBitLength:timeavg 0
scalar MixedLAN.switchHostD.eth.queue outgoingPackets:count 113
scalar MixedLAN.switchHostD.eth.queue outgoingPacketLengths:sum 663192
scalar MixedLAN.switchHostD.eth.queue incomingPackets:count 113
scalar MixedLAN.switchHostD.eth.queue incomingPacketLengths:sum 663192
scalar MixedLAN.switchHostD.eth.queue droppedPacketsQueueOverflow:count 0
scalar MixedLAN.switchHostD.eth.queue droppedPacketLengthsQueueOverflow:sum 0
scalar MixedLAN.switchHostD.eth.mac "simulated time" 120
scalar MixedLAN.switchHostD.eth.mac full-duplex 1
scalar MixedLAN.switchHostD.eth.mac "frames/sec sent" 0.94166666666666665
scalar MixedLAN.switchHostD.eth.mac "frames/sec rcvd" 2.9750000000000001
scalar MixedLAN.switchHostD.eth.mac "bits/sec sent" 5526.6000000000004
scalar MixedLAN.switchHostD.eth.mac "bits/sec rcvd" 30150.400000000001
scalar MixedLAN.switchHostD.eth.mac "rx channel idle (%)" 99.969613999999993
scalar MixedLAN.switchHostD.eth.mac "rx channel utilization (%)" 0.030385999999999996
scalar MixedLAN.switchHostD.eth.mac rxPausePkUnits:count 0
scalar MixedLAN.switchHostD.eth.mac rxPausePkUnits:sum 0
scalar MixedLAN.switchHostD.eth.mac txPausePkUnits:count 0
scalar MixedLAN.switchHostD.eth.mac txPausePkUnits:sum 0
scalar MixedLAN.switchHostD.eth.mac rxPkOk:count 357
scalar MixedLAN.switchHostD.eth.mac rxPkOk:sum(packetBytes) 452256
scalar MixedLAN.switchHostD.eth.mac txPk:count 113
scalar MixedLAN.switchHostD.eth.mac txPk:sum(packetBytes) 82899
scalar MixedLAN.switchHostD.eth.mac packetReceivedFromUpper:count 113
scalar MixedLAN.switchHostD.eth.mac packetReceivedFromUpper:sum(packetBytes) 82899
scalar MixedLAN.switchHostD.eth.mac passedUpPk:count 357
scalar MixedLAN.switchHostD.eth.mac passedUpPk:sum(packetBytes) 452256
scalar MixedLAN.switchHostD.eth.mac packetDropIncorrectlyReceived:count 0
scalar MixedLAN.switchHostD.eth.mac packetDropIncorrectlyReceived:sum(packetBytes) 0
scalar MixedLAN.switchHostD.eth.mac packetDropInterfaceDown:count 0
scalar MixedLAN.switchHostD.eth.mac packetDropInterfaceDown:sum(packetBytes) 0
scalar MixedLAN.switchHostD.eth.mac packetDropNotAddressedToUs:count 1
scalar MixedLAN.switchHostD.eth.mac packetDropNotAddressedToUs:sum(packetBytes) 670
scalar MixedLAN.switchHostD.eth packetDropInterfaceDown:count 0
scalar MixedLAN.switchHostD.eth packetDropInterfaceDown:sum(packetBytes) 0
scalar MixedLAN.switchHostD.eth packetDropNoCarrier:count 0
scalar MixedLAN.switchHostD.eth packetDropNoCarrier:sum(packetBytes) 0
scalar MixedLAN.switch.bridging "processed frames" 5022
scalar MixedLAN.switch.bridging "discarded frames" 0
scalar MixedLAN.switch.bridging packetDropped:count 0
scalar MixedLAN.switch.bridging packetDropped:sum(packetBytes) 0
scalar MixedLAN.switch.ethernet pauseSent:count 0
scalar MixedLAN.switch.ethernet pauseSent:sum 0
scalar MixedLAN.switch.ethernet decapPk:count 5022
scalar MixedLAN.switch.ethernet decapPk:sum(packetBytes) 5653687
scalar MixedLAN.switch.ethernet encapPk:count 5025
scalar MixedLAN.switch.ethernet encapPk:sum(packetBytes) 5655643
scalar MixedLAN.switch.eth[0].queue queueLength:last 0
scalar MixedLAN.switch.eth[0].queue queueLength:max 0
scalar MixedLAN.switch.eth[0].queue queueLength:timeavg 0
scalar MixedLAN.switch.eth[0].queue queueBitLength:last 0
scalar MixedLAN.switch.eth[0].queue queueBitLength:max 0
scalar MixedLAN.switch.eth[0].queue queueBitLength:timeavg 0
scalar MixedLAN.switch.eth[0].queue outgoingPackets:count 1203
scalar MixedLAN.switch.eth[0].queue outgoingPacketLengths:sum 7197128
scalar MixedLAN.switch.eth[0].queue incomingPackets:count 1203
scalar MixedLAN.switch.eth[0].queue incomingPacketLengths:sum 7197128
scalar MixedLAN.switch.eth[0].queue droppedPacketsQueueOverflow:count 0
scalar MixedLAN.switch.eth[0].queue droppedPacketLengthsQueueOverflow:sum 0
scalar MixedLAN.switch.eth[0].mac "simulated time" 120
scalar MixedLAN.switch.eth[0].mac full-duplex 1
scalar MixedLAN.switch.eth[0].mac "frames/sec sent" 10.025
scalar MixedLAN.switch.eth[0].mac "frames/sec rcvd" 31.824999999999999
scalar MixedLAN.switch.eth[0].mac "bits/sec sent" 59976.066666666666
scalar MixedLAN.switch.eth[0].mac "bits/sec rcvd" 323034.66666666669
scalar MixedLAN.switch.eth[0].mac "rx channel idle (%)" 99.674928533333329
scalar MixedLAN.switch.eth[0].mac "rx channel utilization (%)" 0.3250714666666667
scalar MixedLAN.switch.eth[0].mac rxPausePkUnits:count 0
scalar MixedLAN.switch.eth[0].mac rxPausePkUnits:sum 0
scalar MixedLAN.switch.eth[0].mac txPausePkUnits:count 0
scalar MixedLAN.switch.eth[0].mac txPausePkUnits:sum 0
scalar MixedLAN.switch.eth[0].mac rxPkOk:count 3819
scalar MixedLAN.switch.eth[0].mac rxPkOk:sum(packetBytes) 4845520
scalar MixedLAN.switch.eth[0].mac txPk:count 1203
scalar MixedLAN.switch.eth[0].mac txPk:sum(packetBytes) 899641
scalar MixedLAN.switch.eth[0].mac packetReceivedFromUpper:count 1203
scalar MixedLAN.switch.eth[0].mac packetReceivedFromUpper:sum(packetBytes) 899641
scalar MixedLAN.switch.eth[0].mac passedUpPk:count 3819
scalar MixedLAN.switch.eth[0].mac passedUpPk:sum(packetBytes) 4845520
scalar MixedLAN.switch.eth[0].mac packetDropIncorrectlyReceived:count 0
scalar MixedLAN.switch.eth[0].mac packetDropIncorrectlyReceived:sum(packetBytes) 0
scalar MixedLAN.switch.eth[0].mac packetDropInterfaceDown:count 0
scalar MixedLAN.switch.eth[0].mac packetDropInterfaceDown:sum(packetBytes) 0
scalar MixedLAN.switch.eth[0].mac packetDropNotAddressedToUs:count 0
scalar MixedLAN.switch.eth[0].mac packetDropNotAddressedToUs:sum(packetBytes) 0
scalar MixedLAN.switch.eth[0] packetDropInterfaceDown:count 0
scalar MixedLAN.switch.eth[0] packetDropInterfaceDown:sum(packetBytes) 0
scalar MixedLAN.switch.eth[0] packetDropNoCarrier:count 0
scalar MixedLAN.switch.eth[0] packetDropNoCarrier:sum(packetBytes) 0
scalar MixedLAN.switch.eth[1].queue queueLength:last 0
scalar MixedLAN.switch.eth[1].queue queueLength:max 1
scalar MixedLAN.switch.eth[1].queue queueLength:timeavg 4.659999999999996e-05
scalar MixedLAN.switch.eth[1].queue queueBitLength:last 0
scalar MixedLAN.switch.eth[1].queue queueBitLength:max 11960
scalar MixedLAN.switch.eth[1].queue queueBitLength:timeavg 0.1991985173333333
scalar MixedLAN.switch.eth[1].queue outgoingPackets:count 338
scalar MixedLAN.switch.eth[1].queue outgoingPacketLengths:sum 3424904
scalar MixedLAN.switch.eth[1].queue incomingPackets:count 338
scalar MixedLAN.switch.eth[1].queue incomingPacketLengths:sum 3424904
scalar MixedLAN.switch.eth[1].queue droppedPacketsQueueOverflow:count 0
scalar MixedLAN.switch.eth[1].queue droppedPacketLengthsQueueOverflow:sum 0
scalar MixedLAN.switch.eth[1].mac "simulated time" 120
scalar MixedLAN.switch.eth[1].mac full-duplex 1
scalar MixedLAN.switch.eth[1].mac "frames/sec sent" 2.8166666666666669
scalar MixedLAN.switch.eth[1].mac "frames/sec rcvd" 0.90000000000000002
scalar MixedLAN.switch.eth[1].mac "bits/sec sent" 28548.066666666666
scalar MixedLAN.switch.eth[1].mac "bits/sec rcvd" 5336.8666666666668
scalar MixedLAN.switch.eth[1].mac "rx channel idle (%)" 99.994605533333342
scalar MixedLAN.switch.eth[1].mac "rx channel utilization (%)" 0.0053944666666666669
scalar MixedLAN.switch.eth[1].mac rxPausePkUnits:count 0
scalar MixedLAN.switch.eth[1].mac rxPausePkUnits:sum 0
scalar MixedLAN.switch.eth[1].mac txPausePkUnits:count 0
scalar MixedLAN.switch.eth[1].mac txPausePkUnits:sum 0
scalar MixedLAN.switch.eth[1].mac rxPkOk:count 108
scalar MixedLAN.switch.eth[1].mac rxPkOk:sum(packetBytes) 80053
scalar MixedLAN.switch.eth[1].mac txPk:count 338
scalar MixedLAN.switch.eth[1].mac txPk:sum(packetBytes) 428221
scalar MixedLAN.switch.eth[1].mac packetReceivedFromUpper:count 338
scalar MixedLAN.switch.eth[1].mac packetReceivedFromUpper:sum(packetBytes) 428113
scalar MixedLAN.switch.eth[1].mac passedUpPk:count 108
scalar MixedLAN.switch.eth[1].mac passedUpPk:sum(packetBytes) 80053
scalar MixedLAN.switch.eth[1].mac packetDropIncorrectlyReceived:count 0
scalar MixedLAN.switch.eth[1].mac packetDropIncorrectlyReceived:sum(packetBytes) 0
scalar MixedLAN.switch.eth[1].mac packetDropInterfaceDown:count 0
scalar MixedLAN.switch.eth[1].mac packetDropInterfaceDown:sum(packetBytes) 0
scalar MixedLAN.switch.eth[1].mac packetDropNotAddressedToUs:count 0
scalar MixedLAN.switch.eth[1].mac packetDropNotAddressedToUs:sum(packetBytes) 0
scalar MixedLAN.switch.eth[1] packetDropInterfaceDown:count 0
scalar MixedLAN.switch.eth[1] packetDropInterfaceDown:sum(packetBytes) 0
scalar MixedLAN.switch.eth[1] packetDropNoCarrier:count 0
scalar MixedLAN.switch.eth[1] packetDropNoCarrier:sum(packetBytes) 0
scalar MixedLAN.switch.eth[2].queue queueLength:last 0
scalar MixedLAN.switch.eth[2].queue queueLength:max 6
scalar MixedLAN.switch.eth[2].queue queueLength:timeavg 0.0046207613333333342
scalar MixedLAN.switch.eth[2].queue queueBitLength:last 0
scalar MixedLAN.switch.eth[2].queue queueBitLength:max 71472
scalar MixedLAN.switch.eth[2].queue queueBitLength:timeavg 41.449847402666691
scalar MixedLAN.switch.eth[2].queue outgoingPackets:count 360
scalar MixedLAN.switch.eth[2].queue outgoingPacketLengths:sum 3617488
scalar MixedLAN.switch.eth[2].queue incomingPackets:count 360
scalar MixedLAN.switch.eth[2].queue incomingPacketLengths:sum 3617488
scalar MixedLAN.switch.eth[2].queue droppedPacketsQueueOverflow:count 0
scalar MixedLAN.switch.eth[2].queue droppedPacketLengthsQueueOverflow:sum 0
scalar MixedLAN.switch.eth[2].mac "simulated time" 120
scalar MixedLAN.switch.eth[2].mac full-duplex 1
scalar MixedLAN.switch.eth[2].mac "frames/sec sent" 3
scalar MixedLAN.switch.eth[2].mac "frames/sec rcvd" 0.9916666666666667
scalar MixedLAN.switch.eth[2].mac "bits/sec sent" 30153.799999999999
scalar MixedLAN.switch.eth[2].mac "bits/sec rcvd" 5731.8000000000002
scalar MixedLAN.switch.eth[2].mac "rx channel idle (%)" 99.942047333333335
scalar MixedLAN.switch.eth[2].mac "rx channel utilization (%)" 0.057952666666666666
scalar MixedLAN.switch.eth[2].mac rxPausePkUnits:count 0
scalar MixedLAN.switch.eth[2].mac rxPausePkUnits:sum 0
scalar MixedLAN.switch.eth[2].mac txPausePkUnits:count 0
scalar MixedLAN.switch.eth[2].mac txPausePkUnits:sum 0
scalar MixedLAN.switch.eth[2].mac rxPkOk:count 119
scalar MixedLAN.switch.eth[2].mac rxPkOk:sum(packetBytes) 85977
scalar MixedLAN.switch.eth[2].mac txPk:count 360
scalar MixedLAN.switch.eth[2].mac txPk:sum(packetBytes) 452307
scalar MixedLAN.switch.eth[2].mac packetReceivedFromUpper:count 360
scalar MixedLAN.switch.eth[2].mac packetReceivedFromUpper:sum(packetBytes) 452186
scalar MixedLAN.switch.eth[2].mac passedUpPk:count 119
scalar MixedLAN.switch.eth[2].mac passedUpPk:sum(packetBytes) 85977
scalar MixedLAN.switch.eth[2].mac packetDropIncorrectlyReceived:count 0
scalar MixedLAN.switch.eth[2].mac packetDropIncorrectlyReceived:sum(packetBytes) 0
scalar MixedLAN.switch.eth[2].mac packetDropInterfaceDown:count 0
scalar MixedLAN.switch.eth[2].mac packetDropInterfaceDown:sum(packetBytes) 0
scalar MixedLAN.switch.eth[2].mac packetDropNotAddressedToUs:count 0
scalar MixedLAN.switch.eth[2].mac packetDropNotAddressedToUs:sum(packetBytes) 0
scalar MixedLAN.switch.eth[2] packetDropInterfaceDown:count 0
scalar MixedLAN.switch.eth[2] packetDropInterfaceDown:sum(packetBytes) 0
scalar MixedLAN.switch.eth[2] packetDropNoCarrier:count 0
scalar MixedLAN.switch.eth[2] packetDropNoCarrier:sum(packetBytes) 0
scalar MixedLAN.switch.eth[3].queue queueLength:last 0
scalar MixedLAN.switch.eth[3].queue queueLength:max 1
scalar MixedLAN.switch.eth[3].queue queueLength:timeavg 4.6900666666666656e-05
scalar MixedLAN.switch.eth[3].queue queueBitLength:last 0
scalar MixedLAN.switch.eth[3].queue queueBitLength:max 11536
scalar MixedLAN.switch.eth[3].queue queueBitLength:timeavg 0.20225883199999994
scalar MixedLAN.switch.eth[3].queue outgoingPackets:count 358
scalar MixedLAN.switch.eth[3].queue outgoingPacketLengths:sum 3622768
scalar MixedLAN.switch.eth[3].queue incomingPackets:count 358
scalar MixedLAN.switch.eth[3].queue incomingPacketLengths:sum 3622768
scalar MixedLAN.switch.eth[3].queue droppedPacketsQueueOverflow:count 0
scalar MixedLAN.switch.eth[3].queue droppedPacketLengthsQueueOverflow:sum 0
scalar MixedLAN.switch.eth[3].mac "simulated time" 120
scalar MixedLAN.switch.eth[3].mac full-duplex 1
scalar MixedLAN.switch.eth[3].mac "frames/sec sent" 2.9833333333333334
scalar MixedLAN.switch.eth[3].mac "frames/sec rcvd" 0.94166666666666665
scalar MixedLAN.switch.eth[3].mac "bits/sec sent" 30195.066666666666
scalar MixedLAN.switch.eth[3].mac "bits/sec rcvd" 5526.6000000000004
scalar MixedLAN.switch.eth[3].mac "rx channel idle (%)" 99.994413133333339
scalar MixedLAN.switch.eth[3].mac "rx channel utilization (%)" 0.0055868666666666665
scalar MixedLAN.switch.eth[3].mac rxPausePkUnits:count 0
scalar MixedLAN.switch.eth[3].mac rxPausePkUnits:sum 0
scalar MixedLAN.switch.eth[3].mac txPausePkUnits:count 0
scalar MixedLAN.switch.eth[3].mac txPausePkUnits:sum 0
scalar MixedLAN.switch.eth[3].mac rxPkOk:count 113
scalar MixedLAN.switch.eth[3].mac rxPkOk:sum(packetBytes) 82899
scalar MixedLAN.switch.eth[3].mac txPk:count 358
scalar MixedLAN.switch.eth[3].mac txPk:sum(packetBytes) 452926
scalar MixedLAN.switch.eth[3].mac packetReceivedFromUpper:count 358
scalar MixedLAN.switch.eth[3].mac packetReceivedFromUpper:sum(packetBytes) 452846
scalar MixedLAN.switch.eth[3].mac passedUpPk:count 113
scalar MixedLAN.switch.eth[3].mac passedUpPk:sum(packetBytes) 82899
scalar MixedLAN.switch.eth[3].mac packetDropIncorrectlyReceived:count 0
scalar MixedLAN.switch.eth[3].mac packetDropIncorrectlyReceived:sum(packetBytes) 0
scalar MixedLAN.switch.eth[3].mac packetDropInterfaceDown:count 0
scalar MixedLAN.switch.eth[3].mac packetDropInterfaceDown:sum(packetBytes) 0
scalar MixedLAN.switch.eth[3].mac packetDropNotAddressedToUs:count 0
scalar MixedLAN.switch.eth[3].mac packetDropNotAddressedToUs:sum(packetBytes) 0
scalar MixedLAN.switch.eth[3] packetDropInterfaceDown:count 0
scalar MixedLAN.switch.eth[3] packetDropInterfaceDown:sum(packetBytes) 0
scalar MixedLAN.switch.eth[3] packetDropNoCarrier:count 0
scalar MixedLAN.switch.eth[3] packetDropNoCarrier:sum(packetBytes) 0
scalar MixedLAN.switch.eth[4].queue queueLength:last 0
scalar MixedLAN.switch.eth[4].queue queueLength:max 8
scalar MixedLAN.switch.eth[4].queue queueLength:timeavg 0.040049383445833177
scalar MixedLAN.switch.eth[4].queue queueBitLength:last 0
scalar MixedLAN.switch.eth[4].queue queueBitLength:max 91064
scalar MixedLAN.switch.eth[4].queue queueBitLength:timeavg 362.48719409327327
scalar MixedLAN.switch.eth[4].queue outgoingPackets:count 2766
scalar MixedLAN.switch.eth[4].queue outgoingPacketLengths:sum 28106456
scalar MixedLAN.switch.eth[4].queue incomingPackets:count 2766
scalar MixedLAN.switch.eth[4].queue incomingPacketLengths:sum 28106456
scalar MixedLAN.switch.eth[4].queue droppedPacketsQueueOverflow:count 0
scalar MixedLAN.switch.eth[4].queue droppedPacketLengthsQueueOverflow:sum 0
scalar MixedLAN.switch.eth[4].mac "simulated time" 120
scalar MixedLAN.switch.eth[4].mac full-duplex 0
scalar MixedLAN.switch.eth[4].mac "frames/sec sent" 23.050000000000001
scalar MixedLAN.switch.eth[4].mac "frames/sec rcvd" 7.1916666666666664
scalar MixedLAN.switch.eth[4].mac "bits/sec sent" 234271.73333333334
scalar MixedLAN.switch.eth[4].mac "bits/sec rcvd" 43380.800000000003
scalar MixedLAN.switch.eth[4].mac "rx channel idle (%)" 97.20397224125
scalar MixedLAN.switch.eth[4].mac "rx channel utilization (%)" 2.7958799999999999
scalar MixedLAN.switch.eth[4].mac "rx channel collision (%)" 0.00014775874999999999
scalar MixedLAN.switch.eth[4].mac collisions 53
scalar MixedLAN.switch.eth[4].mac backoffs 52
scalar MixedLAN.switch.eth[4].mac backoffSlotsGenerated:count 52
scalar MixedLAN.switch.eth[4].mac collision:count 53
scalar MixedLAN.switch.eth[4].mac rxPausePkUnits:count 0
scalar MixedLAN.switch.eth[4].mac rxPausePkUnits:sum 0
scalar MixedLAN.switch.eth[4].mac txPausePkUnits:count 0
scalar MixedLAN.switch.eth[4].mac txPausePkUnits:sum 0
scalar MixedLAN.switch.eth[4].mac rxPkOk:count 863
scalar MixedLAN.switch.eth[4].mac rxPkOk:sum(packetBytes) 650712
scalar MixedLAN.switch.eth[4].mac txPk:count 2766
scalar MixedLAN.switch.eth[4].mac txPk:sum(packetBytes) 3514076
scalar MixedLAN.switch.eth[4].mac packetReceivedFromUpper:count 2766
scalar MixedLAN.switch.eth[4].mac packetReceivedFromUpper:sum(packetBytes) 3513307
scalar MixedLAN.switch.eth[4].mac passedUpPk:count 863
scalar MixedLAN.switch.eth[4].mac passedUpPk:sum(packetBytes) 650712
scalar MixedLAN.switch.eth[4].mac packetDropIncorrectlyReceived:count 0
scalar MixedLAN.switch.eth[4].mac packetDropIncorrectlyReceived:sum(packetBytes) 0
scalar MixedLAN.switch.eth[4].mac packetDropInterfaceDown:count 0
scalar MixedLAN.switch.eth[4].mac packetDropInterfaceDown:sum(packetBytes) 0
scalar MixedLAN.switch.eth[4].mac packetDropNotAddressedToUs:count 0
scalar MixedLAN.switch.eth[4].mac packetDropNotAddressedToUs:sum(packetBytes) 0
scalar MixedLAN.switch.eth[4] packetDropInterfaceDown:count 0
scalar MixedLAN.switch.eth[4] packetDropInterfaceDown:sum(packetBytes) 0
scalar MixedLAN.switch.eth[4] packetDropNoCarrier:count 0
scalar MixedLAN.switch.eth[4] packetDropNoCarrier:sum(packetBytes) 0
scalar MixedLAN.hubHostA.cli packetReceived:count 353
scalar MixedLAN.hubHostA.cli packetReceived:sum(packetBytes) 447190
scalar MixedLAN.hubHostA.cli packetSent:count 102
scalar MixedLAN.hubHostA.cli packetSent:sum(packetBytes) 64080
scalar MixedLAN.hubHostA.srv packetReceived:count 0
scalar MixedLAN.hubHostA.srv packetReceived:sum(packetBytes) 0
scalar MixedLAN.hubHostA.srv packetSent:count 0
scalar MixedLAN.hubHostA.srv packetSent:sum(packetBytes) 0
scalar MixedLAN.hubHostA.encap pauseSent:count 0
scalar MixedLAN.hubHostA.encap pauseSent:sum 0
scalar MixedLAN.hubHostA.encap decapPk:count 353
scalar MixedLAN.hubHostA.encap decapPk:sum(packetBytes) 448249
scalar MixedLAN.hubHostA.encap encapPk:count 102
scalar MixedLAN.hubHostA.encap encapPk:sum(packetBytes) 64386
scalar MixedLAN.hubHostA.eth.queue queueLength:last 0
scalar MixedLAN.hubHostA.eth.queue queueLength:max 0
scalar MixedLAN.hubHostA.eth.queue queueLength:timeavg 0
scalar MixedLAN.hubHostA.eth.queue queueBitLength:last 0
scalar MixedLAN.hubHostA.eth.queue queueBitLength:max 0
scalar MixedLAN.hubHostA.eth.queue queueBitLength:timeavg 0
scalar MixedLAN.hubHostA.eth.queue outgoingPackets:count 102
scalar MixedLAN.hubHostA.eth.queue outgoingPacketLengths:sum 529776
scalar MixedLAN.hubHostA.eth.queue incomingPackets:count 102
scalar MixedLAN.hubHostA.eth.queue incomingPacketLengths:sum 529776
scalar MixedLAN.hubHostA.eth.queue droppedPacketsQueueOverflow:count 0
scalar MixedLAN.hubHostA.eth.queue droppedPacketLengthsQueueOverflow:sum 0
scalar MixedLAN.hubHostA.eth.mac "simulated time" 120
scalar MixedLAN.hubHostA.eth.mac full-duplex 0
scalar MixedLAN.hubHostA.eth.mac "frames/sec sent" 0.84999999999999998
scalar MixedLAN.hubHostA.eth.mac "frames/sec rcvd" 2.9416666666666669
scalar MixedLAN.hubHostA.eth.mac "bits/sec sent" 4414.8000000000002
scalar MixedLAN.hubHostA.eth.mac "bits/sec rcvd" 30313.666666666668
scalar MixedLAN.hubHostA.eth.mac "rx channel idle (%)" 97.203972341166661
scalar MixedLAN.hubHostA.eth.mac "rx channel utilization (%)" 2.7958799999999999
scalar MixedLAN.hubHostA.eth.mac "rx channel collision (%)" 0.00014765883333333333
scalar MixedLAN.hubHostA.eth.mac collisions 53
scalar MixedLAN.hubHostA.eth.mac backoffs 0
scalar MixedLAN.hubHostA.eth.mac backoffSlotsGenerated:count 0
scalar MixedLAN.hubHostA.eth.mac collision:count 53
scalar MixedLAN.hubHostA.eth.mac rxPausePkUnits:count 0
scalar MixedLAN.hubHostA.eth.mac rxPausePkUnits:sum 0
scalar MixedLAN.hubHostA.eth.mac txPausePkUnits:count 0
scalar MixedLAN.hubHostA.eth.mac txPausePkUnits:sum 0
scalar MixedLAN.hubHostA.eth.mac rxPkOk:count 353
scalar MixedLAN.hubHostA.eth.mac rxPkOk:sum(packetBytes) 454705
scalar MixedLAN.hubHostA.eth.mac txPk:count 102
scalar MixedLAN.hubHostA.eth.mac txPk:sum(packetBytes) 66222
scalar MixedLAN.hubHostA.eth.mac packetReceivedFromUpper:count 102
scalar MixedLAN.hubHostA.eth.mac packetReceivedFromUpper:sum(packetBytes) 66222
scalar MixedLAN.hubHostA.eth.mac passedUpPk:count 353
scalar MixedLAN.hubHostA.eth.mac passedUpPk:sum(packetBytes) 454705
scalar MixedLAN.hubHostA.eth.mac packetDropIncorrectlyReceived:count 0
scalar MixedLAN.hubHostA.eth.mac packetDropIncorrectlyReceived:sum(packetBytes) 0
scalar MixedLAN.hubHostA.eth.mac packetDropInterfaceDown:count 0
scalar MixedLAN.hubHostA.eth.mac packetDropInterfaceDown:sum(packetBytes) 0
scalar MixedLAN.hubHostA.eth.mac packetDropNotAddressedToUs:count 3174
scalar MixedLAN.hubHostA.eth.mac packetDropNotAddressedToUs:sum(packetBytes) 3643861
scalar MixedLAN.hubHostA.eth packetDropInterfaceDown:count 0
scalar MixedLAN.hubHostA.eth packetDropInterfaceDown:sum(packetBytes) 0
scalar MixedLAN.hubHostA.eth packetDropNoCarrier:count 0
scalar MixedLAN.hubHostA.eth packetDropNoCarrier:sum(packetBytes) 0
scalar MixedLAN.hubHostB.cli packetReceived:count 398
scalar MixedLAN.hubHostB.cli packetReceived:sum(packetBytes) 488741
scalar MixedLAN.hubHostB.cli packetSent:count 124
scalar MixedLAN.hubHostB.cli packetSent:sum(packetBytes) 92346
scalar MixedLAN.hubHostB.srv packetReceived:count 0
scalar MixedLAN.hubHostB.srv packetReceived:sum(packetBytes) 0
scalar MixedLAN.hubHostB.srv packetSent:count 0
scalar MixedLAN.hubHostB.srv packetSent:sum(packetBytes) 0
scalar MixedLAN.hubHostB.encap pauseSent:count 0
scalar MixedLAN.hubHostB.encap pauseSent:sum 0
scalar MixedLAN.hubHostB.encap decapPk:count 398
scalar MixedLAN.hubHostB.encap decapPk:sum(packetBytes) 489935
scalar MixedLAN.hubHostB.encap encapPk:count 124
scalar MixedLAN.hubHostB.encap encapPk:sum(packetBytes) 92718
scalar MixedLAN.hubHostB.eth.queue queueLength:last 0
scalar MixedLAN.hubHostB.eth.queue queueLength:max 1
scalar MixedLAN.hubHostB.eth.queue queueLength:timeavg 2.9305444333333332e-05
scalar MixedLAN.hubHostB.eth.queue queueBitLength:last 0
scalar MixedLAN.hubHostB.eth.queue queueBitLength:max 11120
scalar MixedLAN.hubHostB.eth.queue queueBitLength:timeavg 0.27574547921820003
scalar MixedLAN.hubHostB.eth.queue outgoingPackets:count 124
scalar MixedLAN.hubHostB.eth.queue outgoingPacketLengths:sum 759600
scalar MixedLAN.hubHostB.eth.queue incomingPackets:count 124
scalar MixedLAN.hubHostB.eth.queue incomingPacketLengths:sum 759600
scalar MixedLAN.hubHostB.eth.queue droppedPacketsQueueOverflow:count 0
scalar MixedLAN.hubHostB.eth.queue droppedPacketLengthsQueueOverflow:sum 0
scalar MixedLAN.hubHostB.eth.mac "simulated time" 120
scalar MixedLAN.hubHostB.eth.mac full-duplex 0
scalar MixedLAN.hubHostB.eth.mac "frames/sec sent" 1.0333333333333334
scalar MixedLAN.hubHostB.eth.mac "frames/sec rcvd" 3.3166666666666669
scalar MixedLAN.hubHostB.eth.mac "bits/sec sent" 6330
scalar MixedLAN.hubHostB.eth.mac "bits/sec rcvd" 33145.466666666667
scalar MixedLAN.hubHostB.eth.mac "rx channel idle (%)" 97.203972307833325
scalar MixedLAN.hubHostB.eth.mac "rx channel utilization (%)" 2.7958799999999999
scalar MixedLAN.hubHostB.eth.mac "rx channel collision (%)" 0.00014769216666666665
scalar MixedLAN.hubHostB.eth.mac collisions 53
scalar MixedLAN.hubHostB.eth.mac backoffs 11
scalar MixedLAN.hubHostB.eth.mac backoffSlotsGenerated:count 11
scalar MixedLAN.hubHostB.eth.mac collision:count 53
scalar MixedLAN.hubHostB.eth.mac rxPausePkUnits:count 0
scalar MixedLAN.hubHostB.eth.mac rxPausePkUnits:sum 0
scalar MixedLAN.hubHostB.eth.mac txPausePkUnits:count 0
scalar MixedLAN.hubHostB.eth.mac txPausePkUnits:sum 0
scalar MixedLAN.hubHostB.eth.mac rxPkOk:count 398
scalar MixedLAN.hubHostB.eth.mac rxPkOk:sum(packetBytes) 497182
scalar MixedLAN.hubHostB.eth.mac txPk:count 124
scalar MixedLAN.hubHostB.eth.mac txPk:sum(packetBytes) 94950
scalar MixedLAN.hubHostB.eth.mac packetReceivedFromUpper:count 124
scalar MixedLAN.hubHostB.eth.mac packetReceivedFromUpper:sum(packetBytes) 94950
scalar MixedLAN.hubHostB.eth.mac passedUpPk:count 398
scalar MixedLAN.hubHostB.eth.mac passedUpPk:sum(packetBytes) 497182
scalar MixedLAN.hubHostB.eth.mac packetDropIncorrectlyReceived:count 0
scalar MixedLAN.hubHostB.eth.mac packetDropIncorrectlyReceived:sum(packetBytes) 0
scalar MixedLAN.hubHostB.eth.mac packetDropInterfaceDown:count 0
scalar MixedLAN.hubHostB.eth.mac packetDropInterfaceDown:sum(packetBytes) 0
scalar MixedLAN.hubHostB.eth.mac packetDropNotAddressedToUs:count 3107
scalar MixedLAN.hubHostB.eth.mac packetDropNotAddressedToUs:sum(packetBytes) 3572656
scalar MixedLAN.hubHostB.eth packetDropInterfaceDown:count 0
scalar MixedLAN.hubHostB.eth packetDropInterfaceDown:sum(packetBytes) 0
scalar MixedLAN.hubHostB.eth packetDropNoCarrier:count 0
scalar MixedLAN.hubHostB.eth packetDropNoCarrier:sum(packetBytes) 0
scalar MixedLAN.hubHostC.cli packetReceived:count 375
scalar MixedLAN.hubHostC.cli packetReceived:sum(packetBytes) 461823
scalar MixedLAN.hubHostC.cli packetSent:count 127
scalar MixedLAN.hubHostC.cli packetSent:sum(packetBytes) 101079
scalar MixedLAN.hubHostC.srv packetReceived:count 0
scalar MixedLAN.hubHostC.srv packetReceived:sum(packetBytes) 0
scalar MixedLAN.hubHostC.srv packetSent:count 0
scalar MixedLAN.hubHostC.srv packetSent:sum(packetBytes) 0
scalar MixedLAN.hubHostC.encap pauseSent:count 0
scalar MixedLAN.hubHostC.encap pauseSent:sum 0
scalar MixedLAN.hubHostC.encap decapPk:count 375
scalar MixedLAN.hubHostC.encap decapPk:sum(packetBytes) 462948
scalar MixedLAN.hubHostC.encap encapPk:count 127
scalar MixedLAN.hubHostC.encap encapPk:sum(packetBytes) 101460
scalar MixedLAN.hubHostC.eth.queue queueLength:last 0
scalar MixedLAN.hubHostC.eth.queue queueLength:max 1
scalar MixedLAN.hubHostC.eth.queue queueLength:timeavg 2.4758392791666664e-05
scalar MixedLAN.hubHostC.eth.queue queueBitLength:last 0
scalar MixedLAN.hubHostC.eth.queue queueBitLength:max 10304
scalar MixedLAN.hubHostC.eth.queue queueBitLength:timeavg 0.17404495030806666
scalar MixedLAN.hubHostC.eth.queue outgoingPackets:count 127
scalar MixedLAN.hubHostC.eth.queue outgoingPacketLengths:sum 829968
scalar MixedLAN.hubHostC.eth.queue incomingPackets:count 127
scalar MixedLAN.hubHostC.eth.queue incomingPacketLengths:sum 829968
scalar MixedLAN.hubHostC.eth.queue droppedPacketsQueueOverflow:count 0
scalar MixedLAN.hubHostC.eth.queue droppedPacketLengthsQueueOverflow:sum 0
scalar MixedLAN.hubHostC.eth.mac "simulated time" 120
scalar MixedLAN.hubHostC.eth.mac full-duplex 0
scalar MixedLAN.hubHostC.eth.mac "frames/sec sent" 1.0583333333333333
scalar MixedLAN.hubHostC.eth.mac "frames/sec rcvd" 3.125
scalar MixedLAN.hubHostC.eth.mac "bits/sec sent" 6916.3999999999996
scalar MixedLAN.hubHostC.eth.mac "bits/sec rcvd" 31322.266666666666
scalar MixedLAN.hubHostC.eth.mac "rx channel idle (%)" 97.203972341166661
scalar MixedLAN.hubHostC.eth.mac "rx channel utilization (%)" 2.7958799999999999
scalar MixedLAN.hubHostC.eth.mac "rx channel collision (%)" 0.00014765883333333333
scalar MixedLAN.hubHostC.eth.mac collisions 53
scalar MixedLAN.hubHostC.eth.mac backoffs 9
scalar MixedLAN.hubHostC.eth.mac backoffSlotsGenerated:count 9
scalar MixedLAN.hubHostC.eth.mac collision:count 53
scalar MixedLAN.hubHostC.eth.mac rxPausePkUnits:count 0
scalar MixedLAN.hubHostC.eth.mac rxPausePkUnits:sum 0
scalar MixedLAN.hubHostC.eth.mac txPausePkUnits:count 0
scalar MixedLAN.hubHostC.eth.mac txPausePkUnits:sum 0
scalar MixedLAN.hubHostC.eth.mac rxPkOk:count 375
scalar MixedLAN.hubHostC.eth.mac rxPkOk:sum(packetBytes) 469834
scalar MixedLAN.hubHostC.eth.mac txPk:count 127
scalar MixedLAN.hubHostC.eth.mac txPk:sum(packetBytes) 103746
scalar MixedLAN.hubHostC.eth.mac packetReceivedFromUpper:count 127
scalar MixedLAN.hubHostC.eth.mac packetReceivedFromUpper:sum(packetBytes) 103746
scalar MixedLAN.hubHostC.eth.mac passedUpPk:count 375
scalar MixedLAN.hubHostC.eth.mac passedUpPk:sum(packetBytes) 469834
scalar MixedLAN.hubHostC.eth.mac packetDropIncorrectlyReceived:count 0
scalar MixedLAN.hubHostC.eth.mac packetDropIncorrectlyReceived:sum(packetBytes) 0
scalar MixedLAN.hubHostC.eth.mac packetDropInterfaceDown:count 0
scalar MixedLAN.hubHostC.eth.mac packetDropInterfaceDown:sum(packetBytes) 0
scalar MixedLAN.hubHostC.eth.mac packetDropNotAddressedToUs:count 3127
scalar MixedLAN.hubHostC.eth.mac packetDropNotAddressedToUs:sum(packetBytes) 3591208
scalar MixedLAN.hubHostC.eth packetDropInterfaceDown:count 0
scalar MixedLAN.hubHostC.eth packetDropInterfaceDown:sum(packetBytes) 0
scalar MixedLAN.hubHostC.eth packetDropNoCarrier:count 0
scalar MixedLAN.hubHostC.eth packetDropNoCarrier:sum(packetBytes) 0
scalar MixedLAN.hub packetReceived:count 3953
scalar MixedLAN.hub packetReceived:sum(packetBytes) 4304247
scalar MixedLAN.busHostA.cli endToEndDelay:histogram:count 369
scalar MixedLAN.busHostA.cli endToEndDelay:histogram:sumweights 369
scalar MixedLAN.busHostA.cli endToEndDelay:histogram:mean 0.002980259333062328
scalar MixedLAN.busHostA.cli endToEndDelay:histogram:stddev 0.0017477556269615286
scalar MixedLAN.busHostA.cli endToEndDelay:histogram:min 6.3475100000000005e-05
scalar MixedLAN.busHostA.cli endToEndDelay:histogram:max 0.0096405950999999997
scalar MixedLAN.busHostA.cli endToEndDelay:histogram:numbins 60
scalar MixedLAN.busHostA.cli endToEndDelay:histogram:rangemin 0
scalar MixedLAN.busHostA.cli endToEndDelay:histogram:rangemax 0.012
scalar MixedLAN.busHostA.cli endToEndDelay:histogram:underflows 0
scalar MixedLAN.busHostA.cli endToEndDelay:histogram:overflows 0
scalar MixedLAN.busHostA.srv endToEndDelay:histogram:count 0
scalar MixedLAN.busHostA.srv endToEndDelay:histogram:sumweights 0
scalar MixedLAN.busHostA.srv endToEndDelay:histogram:mean -nan
scalar MixedLAN.busHostA.srv endToEndDelay:histogram:stddev nan
scalar MixedLAN.busHostA.srv endToEndDelay:histogram:min nan
scalar MixedLAN.busHostA.srv endToEndDelay:histogram:max nan
scalar MixedLAN.busHostA.srv endToEndDelay:histogram:numbins 1
scalar MixedLAN.busHostA.srv endToEndDelay:histogram:rangemin 0
scalar MixedLAN.busHostA.srv endToEndDelay:histogram:rangemax 1
scalar MixedLAN.busHostA.srv endToEndDelay:histogram:underflows 0
scalar MixedLAN.busHostA.srv endToEndDelay:histogram:overflows 0
scalar MixedLAN.busHostA.eth.queue queueingTime:histogram:count 117
scalar MixedLAN.busHostA.eth.queue queueingTime:histogram:sumweights 117
scalar MixedLAN.busHostA.eth.queue queueingTime:histogram:mean 1.5743611444444445e-05
scalar MixedLAN.busHostA.eth.queue queueingTime:histogram:stddev 0.00011692179825965324
scalar MixedLAN.busHostA.eth.queue queueingTime:histogram:min 0
scalar MixedLAN.busHostA.eth.queue queueingTime:histogram:max 0.00095045244300000003
scalar MixedLAN.busHostA.eth.queue queueingTime:histogram:numbins 60
scalar MixedLAN.busHostA.eth.queue queueingTime:histogram:rangemin 0
scalar MixedLAN.busHostA.eth.queue queueingTime:histogram:rangemax 0.0012000000000000001
scalar MixedLAN.busHostA.eth.queue queueingTime:histogram:underflows 0
scalar MixedLAN.busHostA.eth.queue queueingTime:histogram:overflows 0
scalar MixedLAN.busHostA.eth.queue outgoingPacketLengths:histogram:count 117
scalar MixedLAN.busHostA.eth.queue outgoingPacketLengths:histogram:sumweights 117
scalar MixedLAN.busHostA.eth.queue outgoingPacketLengths:histogram:mean 6107.2136752136748
scalar MixedLAN.busHostA.eth.queue outgoingPacketLengths:histogram:stddev 3143.6783304480459
scalar MixedLAN.busHostA.eth.queue outgoingPacketLengths:histogram:min 568
scalar MixedLAN.busHostA.eth.queue outgoingPacketLengths:histogram:max 11344
scalar MixedLAN.busHostA.eth.queue outgoingPacketLengths:histogram:numbins 71
scalar MixedLAN.busHostA.eth.queue outgoingPacketLengths:histogram:rangemin 0
scalar MixedLAN.busHostA.eth.queue outgoingPacketLengths:histogram:rangemax 14200
scalar MixedLAN.busHostA.eth.queue outgoingPacketLengths:histogram:underflows 0
scalar MixedLAN.busHostA.eth.queue outgoingPacketLengths:histogram:overflows 0
scalar MixedLAN.busHostA.eth.queue flowQueueingTime:histogram:count 0
scalar MixedLAN.busHostA.eth.queue flowQueueingTime:histogram:sumweights 0
scalar MixedLAN.busHostA.eth.queue flowQueueingTime:histogram:mean -nan
scalar MixedLAN.busHostA.eth.queue flowQueueingTime:histogram:stddev nan
scalar MixedLAN.busHostA.eth.queue flowQueueingTime:histogram:min nan
scalar MixedLAN.busHostA.eth.queue flowQueueingTime:histogram:max nan
scalar MixedLAN.busHostA.eth.queue flowQueueingTime:histogram:numbins 1
scalar MixedLAN.busHostA.eth.queue flowQueueingTime:histogram:rangemin 0
scalar MixedLAN.busHostA.eth.queue flowQueueingTime:histogram:rangemax 1
scalar MixedLAN.busHostA.eth.queue flowQueueingTime:histogram:underflows 0
scalar MixedLAN.busHostA.eth.queue flowQueueingTime:histogram:overflows 0
scalar MixedLAN.busHostA.eth.queue incomingPacketLengths:histogram:count 117
scalar MixedLAN.busHostA.eth.queue incomingPacketLengths:histogram:sumweights 117
scalar MixedLAN.busHostA.eth.queue incomingPacketLengths:histogram:mean 6107.2136752136748
scalar MixedLAN.busHostA.eth.queue incomingPacketLengths:histogram:stddev 3143.6783304480459
scalar MixedLAN.busHostA.eth.queue incomingPacketLengths:histogram:min 568
scalar MixedLAN.busHostA.eth.queue incomingPacketLengths:histogram:max 11344
scalar MixedLAN.busHostA.eth.queue incomingPacketLengths:histogram:numbins 71
scalar MixedLAN.busHostA.eth.queue incomingPacketLengths:histogram:rangemin 0
scalar MixedLAN.busHostA.eth.queue incomingPacketLengths:histogram:rangemax 14200
scalar MixedLAN.busHostA.eth.queue incomingPacketLengths:histogram:underflows 0
scalar MixedLAN.busHostA.eth.queue incomingPacketLengths:histogram:overflows 0
scalar MixedLAN.busHostB.cli endToEndDelay:histogram:count 418
scalar MixedLAN.busHostB.cli endToEndDelay:histogram:sumweights 418
scalar MixedLAN.busHostB.cli endToEndDelay:histogram:mean 0.0029710992576602855
scalar MixedLAN.busHostB.cli endToEndDelay:histogram:stddev 0.0017173349912282367
scalar MixedLAN.busHostB.cli endToEndDelay:histogram:min 0.00013822509999999999
scalar MixedLAN.busHostB.cli endToEndDelay:histogram:max 0.0083141450999999998
scalar MixedLAN.busHostB.cli endToEndDelay:histogram:numbins 52
scalar MixedLAN.busHostB.cli endToEndDelay:histogram:rangemin 0
scalar MixedLAN.busHostB.cli endToEndDelay:histogram:rangemax 0.010400000000000001
scalar MixedLAN.busHostB.cli endToEndDelay:histogram:underflows 0
scalar MixedLAN.busHostB.cli endToEndDelay:histogram:overflows 0
scalar MixedLAN.busHostB.srv endToEndDelay:histogram:count 0
scalar MixedLAN.busHostB.srv endToEndDelay:histogram:sumweights 0
scalar MixedLAN.busHostB.srv endToEndDelay:histogram:mean -nan
scalar MixedLAN.busHostB.srv endToEndDelay:histogram:stddev nan
scalar MixedLAN.busHostB.srv endToEndDelay:histogram:min nan
scalar MixedLAN.busHostB.srv endToEndDelay:histogram:max nan
scalar MixedLAN.busHostB.srv endToEndDelay:histogram:numbins 1
scalar MixedLAN.busHostB.srv endToEndDelay:histogram:rangemin 0
scalar MixedLAN.busHostB.srv endToEndDelay:histogram:rangemax 1
scalar MixedLAN.busHostB.srv endToEndDelay:histogram:underflows 0
scalar MixedLAN.busHostB.srv endToEndDelay:histogram:overflows 0
scalar MixedLAN.busHostB.eth.queue queueingTime:histogram:count 135
scalar MixedLAN.busHostB.eth.queue queueingTime:histogram:sumweights 135
scalar MixedLAN.busHostB.eth.queue queueingTime:histogram:mean 2.029426588148148e-05
scalar MixedLAN.busHostB.eth.queue queueingTime:histogram:stddev 0.00010043042891460178
scalar MixedLAN.busHostB.eth.queue queueingTime:histogram:min 0
scalar MixedLAN.busHostB.eth.queue queueingTime:histogram:max 0.00072506871100000002
scalar MixedLAN.busHostB.eth.queue queueingTime:histogram:numbins 73
scalar MixedLAN.busHostB.eth.queue queueingTime:histogram:rangemin 0
scalar MixedLAN.busHostB.eth.queue queueingTime:histogram:rangemax 0.00073000000000000007
scalar MixedLAN.busHostB.eth.queue queueingTime:histogram:underflows 0
scalar MixedLAN.busHostB.eth.queue queueingTime:histogram:overflows 0
scalar MixedLAN.busHostB.eth.queue outgoingPacketLengths:histogram:count 135
scalar MixedLAN.busHostB.eth.queue outgoingPacketLengths:histogram:sumweights 135
scalar MixedLAN.busHostB.eth.queue outgoingPacketLengths:histogram:mean 6081.4814814814818
scalar MixedLAN.busHostB.eth.queue outgoingPacketLengths:histogram:stddev 3096.8483831528783
scalar MixedLAN.busHostB.eth.queue outgoingPacketLengths:histogram:min 608
scalar MixedLAN.busHostB.eth.queue outgoingPacketLengths:histogram:max 11320
scalar MixedLAN.busHostB.eth.queue outgoingPacketLengths:histogram:numbins 70
scalar MixedLAN.busHostB.eth.queue outgoingPacketLengths:histogram:rangemin 0
scalar MixedLAN.busHostB.eth.queue outgoingPacketLengths:histogram:rangemax 14000
scalar MixedLAN.busHostB.eth.queue outgoingPacketLengths:histogram:underflows 0
scalar MixedLAN.busHostB.eth.queue outgoingPacketLengths:histogram:overflows 0
scalar MixedLAN.busHostB.eth.queue flowQueueingTime:histogram:count 0
scalar MixedLAN.busHostB.eth.queue flowQueueingTime:histogram:sumweights 0
scalar MixedLAN.busHostB.eth.queue flowQueueingTime:histogram:mean -nan
scalar MixedLAN.busHostB.eth.queue flowQueueingTime:histogram:stddev nan
scalar MixedLAN.busHostB.eth.queue flowQueueingTime:histogram:min nan
scalar MixedLAN.busHostB.eth.queue flowQueueingTime:histogram:max nan
scalar MixedLAN.busHostB.eth.queue flowQueueingTime:histogram:numbins 1
scalar MixedLAN.busHostB.eth.queue flowQueueingTime:histogram:rangemin 0
scalar MixedLAN.busHostB.eth.queue flowQueueingTime:histogram:rangemax 1
scalar MixedLAN.busHostB.eth.queue flowQueueingTime:histogram:underflows 0
scalar MixedLAN.busHostB.eth.queue flowQueueingTime:histogram:overflows 0
scalar MixedLAN.busHostB.eth.queue incomingPacketLengths:histogram:count 135
scalar MixedLAN.busHostB.eth.queue incomingPacketLengths:histogram:sumweights 135
scalar MixedLAN.busHostB.eth.queue incomingPacketLengths:histogram:mean 6081.4814814814818
scalar MixedLAN.busHostB.eth.queue incomingPacketLengths:histogram:stddev 3096.8483831528783
scalar MixedLAN.busHostB.eth.queue incomingPacketLengths:histogram:min 608
scalar MixedLAN.busHostB.eth.queue incomingPacketLengths:histogram:max 11320
scalar MixedLAN.busHostB.eth.queue incomingPacketLengths:histogram:numbins 70
scalar MixedLAN.busHostB.eth.queue incomingPacketLengths:histogram:rangemin 0
scalar MixedLAN.busHostB.eth.queue incomingPacketLengths:histogram:rangemax 14000
scalar MixedLAN.busHostB.eth.queue incomingPacketLengths:histogram:underflows 0
scalar MixedLAN.busHostB.eth.queue incomingPacketLengths:histogram:overflows 0
scalar MixedLAN.busHostC.cli endToEndDelay:histogram:count 379
scalar MixedLAN.busHostC.cli endToEndDelay:histogram:sumweights 379
scalar MixedLAN.busHostC.cli endToEndDelay:histogram:mean 0.0030110405126649018
scalar MixedLAN.busHostC.cli endToEndDelay:histogram:stddev 0.0017621504159445001
scalar MixedLAN.busHostC.cli endToEndDelay:histogram:min 0.0001417151
scalar MixedLAN.busHostC.cli endToEndDelay:histogram:max 0.0105773151
scalar MixedLAN.busHostC.cli endToEndDelay:histogram:numbins 61
scalar MixedLAN.busHostC.cli endToEndDelay:histogram:rangemin 0
scalar MixedLAN.busHostC.cli endToEndDelay:histogram:rangemax 0.012200000000000001
scalar MixedLAN.busHostC.cli endToEndDelay:histogram:underflows 0
scalar MixedLAN.busHostC.cli endToEndDelay:histogram:overflows 0
scalar MixedLAN.busHostC.srv endToEndDelay:histogram:count 0
scalar MixedLAN.busHostC.srv endToEndDelay:histogram:sumweights 0
scalar MixedLAN.busHostC.srv endToEndDelay:histogram:mean -nan
scalar MixedLAN.busHostC.srv endToEndDelay:histogram:stddev nan
scalar MixedLAN.busHostC.srv endToEndDelay:histogram:min nan
scalar MixedLAN.busHostC.srv endToEndDelay:histogram:max nan
scalar MixedLAN.busHostC.srv endToEndDelay:histogram:numbins 1
scalar MixedLAN.busHostC.srv endToEndDelay:histogram:rangemin 0
scalar MixedLAN.busHostC.srv endToEndDelay:histogram:rangemax 1
scalar MixedLAN.busHostC.srv endToEndDelay:histogram:underflows 0
scalar MixedLAN.busHostC.srv endToEndDelay:histogram:overflows 0
scalar MixedLAN.busHostC.eth.queue queueingTime:histogram:count 121
scalar MixedLAN.busHostC.eth.queue queueingTime:histogram:sumweights 121
scalar MixedLAN.busHostC.eth.queue queueingTime:histogram:mean 2.2003698272727271e-05
scalar MixedLAN.busHostC.eth.queue queueingTime:histogram:stddev 0.00012557128946911466
scalar MixedLAN.busHostC.eth.queue queueingTime:histogram:min 0
scalar MixedLAN.busHostC.eth.queue queueingTime:histogram:max 0.001076825599
scalar MixedLAN.busHostC.eth.queue queueingTime:histogram:numbins 68
scalar MixedLAN.busHostC.eth.queue queueingTime:histogram:rangemin 0
scalar MixedLAN.busHostC.eth.queue queueingTime:histogram:rangemax 0.0013600000000000001
scalar MixedLAN.busHostC.eth.queue queueingTime:histogram:underflows 0
scalar MixedLAN.busHostC.eth.queue queueingTime:histogram:overflows 0
scalar MixedLAN.busHostC.eth.queue outgoingPacketLengths:histogram:count 121
scalar MixedLAN.busHostC.eth.queue outgoingPacketLengths:histogram:sumweights 121
scalar MixedLAN.busHostC.eth.queue outgoingPacketLengths:histogram:mean 5854.4132231404956
scalar MixedLAN.busHostC.eth.queue outgoingPacketLengths:histogram:stddev 3023.7267283641377
scalar MixedLAN.busHostC.eth.queue outgoingPacketLengths:histogram:min 704
scalar MixedLAN.busHostC.eth.queue outgoingPacketLengths:histogram:max 11272
scalar MixedLAN.busHostC.eth.queue outgoingPacketLengths:histogram:numbins 70
scalar MixedLAN.busHostC.eth.queue outgoingPacketLengths:histogram:rangemin 0
scalar MixedLAN.busHostC.eth.queue outgoingPacketLengths:histogram:rangemax 14000
scalar MixedLAN.busHostC.eth.queue outgoingPacketLengths:histogram:underflows 0
scalar MixedLAN.busHostC.eth.queue outgoingPacketLengths:histogram:overflows 0
scalar MixedLAN.busHostC.eth.queue flowQueueingTime:histogram:count 0
scalar MixedLAN.busHostC.eth.queue flowQueueingTime:histogram:sumweights 0
scalar MixedLAN.busHostC.eth.queue flowQueueingTime:histogram:mean -nan
scalar MixedLAN.busHostC.eth.queue flowQueueingTime:histogram:stddev nan
scalar MixedLAN.busHostC.eth.queue flowQueueingTime:histogram:min nan
scalar MixedLAN.busHostC.eth.queue flowQueueingTime:histogram:max nan
scalar MixedLAN.busHostC.eth.queue flowQueueingTime:histogram:numbins 1
scalar MixedLAN.busHostC.eth.queue flowQueueingTime:histogram:rangemin 0
scalar MixedLAN.busHostC.eth.queue flowQueueingTime:histogram:rangemax 1
scalar MixedLAN.busHostC.eth.queue flowQueueingTime:histogram:underflows 0
scalar MixedLAN.busHostC.eth.queue flowQueueingTime:histogram:overflows 0
scalar MixedLAN.busHostC.eth.queue incomingPacketLengths:histogram:count 121
scalar MixedLAN.busHostC.eth.queue incomingPacketLengths:histogram:sumweights 121
scalar MixedLAN.busHostC.eth.queue incomingPacketLengths:histogram:mean 5854.4132231404956
scalar MixedLAN.busHostC.eth.queue incomingPacketLengths:histogram:stddev 3023.7267283641377
scalar MixedLAN.busHostC.eth.queue incomingPacketLengths:histogram:min 704
scalar MixedLAN.busHostC.eth.queue incomingPacketLengths:histogram:max 11272
scalar MixedLAN.busHostC.eth.queue incomingPacketLengths:histogram:numbins 70
scalar MixedLAN.busHostC.eth.queue incomingPacketLengths:histogram:rangemin 0
scalar MixedLAN.busHostC.eth.queue incomingPacketLengths:histogram:rangemax 14000
scalar MixedLAN.busHostC.eth.queue incomingPacketLengths:histogram:underflows 0
scalar MixedLAN.busHostC.eth.queue incomingPacketLengths:histogram:overflows 0
scalar MixedLAN.busHostD.cli endToEndDelay:histogram:count 474
scalar MixedLAN.busHostD.cli endToEndDelay:histogram:sumweights 474
scalar MixedLAN.busHostD.cli endToEndDelay:histogram:mean 0.0032267333772151899
scalar MixedLAN.busHostD.cli endToEndDelay:histogram:stddev 0.0018527728630169447
scalar MixedLAN.busHostD.cli endToEndDelay:histogram:min 0.00013741010000000001
scalar MixedLAN.busHostD.cli endToEndDelay:histogram:max 0.0100087401
scalar MixedLAN.busHostD.cli endToEndDelay:histogram:numbins 51
scalar MixedLAN.busHostD.cli endToEndDelay:histogram:rangemin 0
scalar MixedLAN.busHostD.cli endToEndDelay:histogram:rangemax 0.010200000000000001
scalar MixedLAN.busHostD.cli endToEndDelay:histogram:underflows 0
scalar MixedLAN.busHostD.cli endToEndDelay:histogram:overflows 0
scalar MixedLAN.busHostD.srv endToEndDelay:histogram:count 0
scalar MixedLAN.busHostD.srv endToEndDelay:histogram:sumweights 0
scalar MixedLAN.busHostD.srv endToEndDelay:histogram:mean -nan
scalar MixedLAN.busHostD.srv endToEndDelay:histogram:stddev nan
scalar MixedLAN.busHostD.srv endToEndDelay:histogram:min nan
scalar MixedLAN.busHostD.srv endToEndDelay:histogram:max nan
scalar MixedLAN.busHostD.srv endToEndDelay:histogram:numbins 1
scalar MixedLAN.busHostD.srv endToEndDelay:histogram:rangemin 0
scalar MixedLAN.busHostD.srv endToEndDelay:histogram:rangemax 1
scalar MixedLAN.busHostD.srv endToEndDelay:histogram:underflows 0
scalar MixedLAN.busHostD.srv endToEndDelay:histogram:overflows 0
scalar MixedLAN.busHostD.eth.queue queueingTime:histogram:count 137
scalar MixedLAN.busHostD.eth.queue queueingTime:histogram:sumweights 137
scalar MixedLAN.busHostD.eth.queue queueingTime:histogram:mean 1.4230352058394161e-05
scalar MixedLAN.busHostD.eth.queue queueingTime:histogram:stddev 9.6909338372801014e-05
scalar MixedLAN.busHostD.eth.queue queueingTime:histogram:min 0
scalar MixedLAN.busHostD.eth.queue queueingTime:histogram:max 0.00096544793199999999
scalar MixedLAN.busHostD.eth.queue queueingTime:histogram:numbins 61
scalar MixedLAN.busHostD.eth.queue queueingTime:histogram:rangemin 0
scalar MixedLAN.busHostD.eth.queue queueingTime:histogram:rangemax 0.0012200000000000002
scalar MixedLAN.busHostD.eth.queue queueingTime:histogram:underflows 0
scalar MixedLAN.busHostD.eth.queue queueingTime:histogram:overflows 0
scalar MixedLAN.busHostD.eth.queue outgoingPacketLengths:histogram:count 137
scalar MixedLAN.busHostD.eth.queue outgoingPacketLengths:histogram:sumweights 137
scalar MixedLAN.busHostD.eth.queue outgoingPacketLengths:histogram:mean 6149.080291970803
scalar MixedLAN.busHostD.eth.queue outgoingPacketLengths:histogram:stddev 3135.5805355589869
scalar MixedLAN.busHostD.eth.queue outgoingPacketLengths:histogram:min 568
scalar MixedLAN.busHostD.eth.queue outgoingPacketLengths:histogram:max 11336
scalar MixedLAN.busHostD.eth.queue outgoingPacketLengths:histogram:numbins 71
scalar MixedLAN.busHostD.eth.queue outgoingPacketLengths:histogram:rangemin 0
scalar MixedLAN.busHostD.eth.queue outgoingPacketLengths:histogram:rangemax 14200
scalar MixedLAN.busHostD.eth.queue outgoingPacketLengths:histogram:underflows 0
scalar MixedLAN.busHostD.eth.queue outgoingPacketLengths:histogram:overflows 0
scalar MixedLAN.busHostD.eth.queue flowQueueingTime:histogram:count 0
scalar MixedLAN.busHostD.eth.queue flowQueueingTime:histogram:sumweights 0
scalar MixedLAN.busHostD.eth.queue flowQueueingTime:histogram:mean -nan
scalar MixedLAN.busHostD.eth.queue flowQueueingTime:histogram:stddev nan
scalar MixedLAN.busHostD.eth.queue flowQueueingTime:histogram:min nan
scalar MixedLAN.busHostD.eth.queue flowQueueingTime:histogram:max nan
scalar MixedLAN.busHostD.eth.queue flowQueueingTime:histogram:numbins 1
scalar MixedLAN.busHostD.eth.queue flowQueueingTime:histogram:rangemin 0
scalar MixedLAN.busHostD.eth.queue flowQueueingTime:histogram:rangemax 1
scalar MixedLAN.busHostD.eth.queue flowQueueingTime:histogram:underflows 0
scalar MixedLAN.busHostD.eth.queue flowQueueingTime:histogram:overflows 0
scalar MixedLAN.busHostD.eth.queue incomingPacketLengths:histogram:count 137
scalar MixedLAN.busHostD.eth.queue incomingPacketLengths:histogram:sumweights 137
scalar MixedLAN.busHostD.eth.queue incomingPacketLengths:histogram:mean 6149.080291970803
scalar MixedLAN.busHostD.eth.queue incomingPacketLengths:histogram:stddev 3135.5805355589869
scalar MixedLAN.busHostD.eth.queue incomingPacketLengths:histogram:min 568
scalar MixedLAN.busHostD.eth.queue incomingPacketLengths:histogram:max 11336
scalar MixedLAN.busHostD.eth.queue incomingPacketLengths:histogram:numbins 71
scalar MixedLAN.busHostD.eth.queue incomingPacketLengths:histogram:rangemin 0
scalar MixedLAN.busHostD.eth.queue incomingPacketLengths:histogram:rangemax 14200
scalar MixedLAN.busHostD.eth.queue incomingPacketLengths:histogram:underflows 0
scalar MixedLAN.busHostD.eth.queue incomingPacketLengths:histogram:overflows 0
scalar MixedLAN.switchHostA.cli endToEndDelay:histogram:count 0
scalar MixedLAN.switchHostA.cli endToEndDelay:histogram:sumweights 0
scalar MixedLAN.switchHostA.cli endToEndDelay:histogram:mean -nan
scalar MixedLAN.switchHostA.cli endToEndDelay:histogram:stddev nan
scalar MixedLAN.switchHostA.cli endToEndDelay:histogram:min nan
scalar MixedLAN.switchHostA.cli endToEndDelay:histogram:max nan
scalar MixedLAN.switchHostA.cli endToEndDelay:histogram:numbins 1
scalar MixedLAN.switchHostA.cli endToEndDelay:histogram:rangemin 0
scalar MixedLAN.switchHostA.cli endToEndDelay:histogram:rangemax 1
scalar MixedLAN.switchHostA.cli endToEndDelay:histogram:underflows 0
scalar MixedLAN.switchHostA.cli endToEndDelay:histogram:overflows 0
scalar MixedLAN.switchHostA.srv endToEndDelay:histogram:count 1203
scalar MixedLAN.switchHostA.srv endToEndDelay:histogram:sumweights 1203
scalar MixedLAN.switchHostA.srv endToEndDelay:histogram:mean 0.00060037984539567724
scalar MixedLAN.switchHostA.srv endToEndDelay:histogram:stddev 0.00050881655298888476
scalar MixedLAN.switchHostA.srv endToEndDelay:histogram:min 1.364e-05
scalar MixedLAN.switchHostA.srv endToEndDelay:histogram:max 0.007268871891
scalar MixedLAN.switchHostA.srv endToEndDelay:histogram:numbins 73
scalar MixedLAN.switchHostA.srv endToEndDelay:histogram:rangemin 0
scalar MixedLAN.switchHostA.srv endToEndDelay:histogram:rangemax 0.0073000000000000001
scalar MixedLAN.switchHostA.srv endToEndDelay:histogram:underflows 0
scalar MixedLAN.switchHostA.srv endToEndDelay:histogram:overflows 0
scalar MixedLAN.switchHostA.eth.queue queueingTime:histogram:count 3819
scalar MixedLAN.switchHostA.eth.queue queueingTime:histogram:sumweights 3819
scalar MixedLAN.switchHostA.eth.queue queueingTime:histogram:mean 0.00018589948246111509
scalar MixedLAN.switchHostA.eth.queue queueingTime:histogram:stddev 0.00018358695011589887
scalar MixedLAN.switchHostA.eth.queue queueingTime:histogram:min 0
scalar MixedLAN.switchHostA.eth.queue queueingTime:histogram:max 0.0011073599999999999
scalar MixedLAN.switchHostA.eth.queue queueingTime:histogram:numbins 56
scalar MixedLAN.switchHostA.eth.queue queueingTime:histogram:rangemin 0
scalar MixedLAN.switchHostA.eth.queue queueingTime:histogram:rangemax 0.0011200000000000003
scalar MixedLAN.switchHostA.eth.queue queueingTime:histogram:underflows 0
scalar MixedLAN.switchHostA.eth.queue queueingTime:histogram:overflows 0
scalar MixedLAN.switchHostA.eth.queue outgoingPacketLengths:histogram:count 3819
scalar MixedLAN.switchHostA.eth.queue outgoingPacketLengths:histogram:sumweights 3819
scalar MixedLAN.switchHostA.eth.queue outgoingPacketLengths:histogram:mean 10148.084838963079
scalar MixedLAN.switchHostA.eth.queue outgoingPacketLengths:histogram:stddev 3518.8816127031114
[...]
scalar MixedLAN.hubHostC.srv packetReceived:vector(packetBytes):mean -nan
scalar MixedLAN.hubHostC.srv packetReceived:vector(packetBytes):stddev nan
scalar MixedLAN.hubHostC.srv packetReceived:vector(packetBytes):min inf
scalar MixedLAN.hubHostC.srv packetReceived:vector(packetBytes):max -inf
scalar MixedLAN.hubHostC.srv packetReceived:vector(packetBytes):starttime nan
scalar MixedLAN.hubHostC.srv packetReceived:vector(packetBytes):endtime nan
scalar MixedLAN.hubHostC.srv packetSent:vector(packetBytes):count 0
scalar MixedLAN.hubHostC.srv packetSent:vector(packetBytes):sum 0
scalar MixedLAN.hubHostC.srv packetSent:vector(packetBytes):sumweights 0
scalar MixedLAN.hubHostC.srv packetSent:vector(packetBytes):mean -nan
scalar MixedLAN.hubHostC.srv packetSent:vector(packetBytes):stddev nan
scalar MixedLAN.hubHostC.srv packetSent:vector(packetBytes):min inf
scalar MixedLAN.hubHostC.srv packetSent:vector(packetBytes):max -inf
scalar MixedLAN.hubHostC.srv packetSent:vector(packetBytes):starttime nan
scalar MixedLAN.hubHostC.srv packetSent:vector(packetBytes):endtime nan
scalar MixedLAN.hubHostC.srv endToEndDelay:vector:count 0
scalar MixedLAN.hubHostC.srv endToEndDelay:vector:sum 0
scalar MixedLAN.hubHostC.srv endToEndDelay:vector:sumweights 0
scalar MixedLAN.hubHostC.srv endToEndDelay:vector:mean -nan
scalar MixedLAN.hubHostC.srv endToEndDelay:vector:stddev nan
scalar MixedLAN.hubHostC.srv endToEndDelay:vector:min inf
scalar MixedLAN.hubHostC.srv endToEndDelay:vector:max -inf
scalar MixedLAN.hubHostC.srv endToEndDelay:vector:starttime nan
scalar MixedLAN.hubHostC.srv endToEndDelay:vector:endtime nan
scalar MixedLAN.hubHostC.encap encapPk:vector(packetBytes):count 0
scalar MixedLAN.hubHostC.encap encapPk:vector(packetBytes):sum 0
scalar MixedLAN.hubHostC.encap encapPk:vector(packetBytes):sumweights 0
scalar MixedLAN.hubHostC.encap encapPk:vector(packetBytes):mean -nan
scalar MixedLAN.hubHostC.encap encapPk:vector(packetBytes):stddev nan
scalar MixedLAN.hubHostC.encap encapPk:vector(packetBytes):min inf
scalar MixedLAN.hubHostC.encap encapPk:vector(packetBytes):max -inf
scalar MixedLAN.hubHostC.encap encapPk:vector(packetBytes):starttime nan
scalar MixedLAN.hubHostC.encap encapPk:vector(packetBytes):endtime nan
scalar MixedLAN.hubHostC.encap decapPk:vector(packetBytes):count 0
scalar MixedLAN.hubHostC.encap decapPk:vector(packetBytes):sum 0
scalar MixedLAN.hubHostC.encap decapPk:vector(packetBytes):sumweights 0
scalar MixedLAN.hubHostC.encap decapPk:vector(packetBytes):mean -nan
scalar MixedLAN.hubHostC.encap decapPk:vector(packetBytes):stddev nan
scalar MixedLAN.hubHostC.encap decapPk:vector(packetBytes):min inf
scalar MixedLAN.hubHostC.encap decapPk:vector(packetBytes):max -inf
scalar MixedLAN.hubHostC.encap decapPk:vector(packetBytes):starttime nan
scalar MixedLAN.hubHostC.encap decapPk:vector(packetBytes):endtime nan
scalar MixedLAN.hubHostC.encap pauseSent:vector:count 0
scalar MixedLAN.hubHostC.encap pauseSent:vector:sum 0
scalar MixedLAN.hubHostC.encap pauseSent:vector:sumweights 0
scalar MixedLAN.hubHostC.encap pauseSent:vector:mean -nan
scalar MixedLAN.hubHostC.encap pauseSent:vector:stddev nan
scalar MixedLAN.hubHostC.encap pauseSent:vector:min inf
scalar MixedLAN.hubHostC.encap pauseSent:vector:max -inf
scalar MixedLAN.hubHostC.encap pauseSent:vector:starttime nan
scalar MixedLAN.hubHostC.encap pauseSent:vector:endtime nan
scalar MixedLAN.hubHostC.eth.queue queueLength:vector:count 0
scalar MixedLAN.hubHostC.eth.queue queueLength:vector:sum 0
scalar MixedLAN.hubHostC.eth.queue queueLength:vector:sumweights 0
scalar MixedLAN.hubHostC.eth.queue queueLength:vector:mean -nan
scalar MixedLAN.hubHostC.eth.queue queueLength:vector:stddev nan
scalar MixedLAN.hubHostC.eth.queue queueLength:vector:min inf
scalar MixedLAN.hubHostC.eth.queue queueLength:vector:max -inf
scalar MixedLAN.hubHostC.eth.queue queueLength:vector:starttime nan
scalar MixedLAN.hubHostC.eth.queue queueLength:vector:endtime nan
scalar MixedLAN.hubHostC.eth.queue queueBitLength:vector:count 0
scalar MixedLAN.hubHostC.eth.queue queueBitLength:vector:sum 0
scalar MixedLAN.hubHostC.eth.queue queueBitLength:vector:sumweights 0
scalar MixedLAN.hubHostC.eth.queue queueBitLength:vector:mean -nan
scalar MixedLAN.hubHostC.eth.queue queueBitLength:vector:stddev nan
scalar MixedLAN.hubHostC.eth.queue queueBitLength:vector:min inf
scalar MixedLAN.hubHostC.eth.queue queueBitLength:vector:max -inf
scalar MixedLAN.hubHostC.eth.queue queueBitLength:vector:starttime nan
scalar MixedLAN.hubHostC.eth.queue queueBitLength:vector:endtime nan
scalar MixedLAN.hubHostC.eth.queue queueingTime:vector:count 0
scalar MixedLAN.hubHostC.eth.queue queueingTime:vector:sum 0
scalar MixedLAN.hubHostC.eth.queue queueingTime:vector:sumweights 0
scalar MixedLAN.hubHostC.eth.queue queueingTime:vector:mean -nan
scalar MixedLAN.hubHostC.eth.queue queueingTime:vector:stddev nan
scalar MixedLAN.hubHostC.eth.queue queueingTime:vector:min inf
scalar MixedLAN.hubHostC.eth.queue queueingTime:vector:max -inf
scalar MixedLAN.hubHostC.eth.queue queueingTime:vector:starttime nan
scalar MixedLAN.hubHostC.eth.queue queueingTime:vector:endtime nan
scalar MixedLAN.hubHostC.eth.queue incomingPacketLengths:vector:count 0
scalar MixedLAN.hubHostC.eth.queue incomingPacketLengths:vector:sum 0
scalar MixedLAN.hubHostC.eth.queue incomingPacketLengths:vector:sumweights 0
scalar MixedLAN.hubHostC.eth.queue incomingPacketLengths:vector:mean -nan
scalar MixedLAN.hubHostC.eth.queue incomingPacketLengths:vector:stddev nan
scalar MixedLAN.hubHostC.eth.queue incomingPacketLengths:vector:min inf
scalar MixedLAN.hubHostC.eth.queue incomingPacketLengths:vector:max -inf
scalar MixedLAN.hubHostC.eth.queue incomingPacketLengths:vector:starttime nan
scalar MixedLAN.hubHostC.eth.queue incomingPacketLengths:vector:endtime nan
scalar MixedLAN.hubHostC.eth.queue incomingDataRate:vector:count 0
scalar MixedLAN.hubHostC.eth.queue incomingDataRate:vector:sum 0
scalar MixedLAN.hubHostC.eth.queue incomingDataRate:vector:sumweights 0
scalar MixedLAN.hubHostC.eth.queue incomingDataRate:vector:mean -nan
scalar MixedLAN.hubHostC.eth.queue incomingDataRate:vector:stddev nan
scalar MixedLAN.hubHostC.eth.queue incomingDataRate:vector:min inf
scalar MixedLAN.hubHostC.eth.queue incomingDataRate:vector:max -inf
scalar MixedLAN.hubHostC.eth.queue incomingDataRate:vector:starttime nan
scalar MixedLAN.hubHostC.eth.queue incomingDataRate:vector:endtime nan
scalar MixedLAN.hubHostC.eth.queue outgoingPacketLengths:vector:count 0
scalar MixedLAN.hubHostC.eth.queue outgoingPacketLengths:vector:sum 0
scalar MixedLAN.hubHostC.eth.queue outgoingPacketLengths:vector:sumweights 0
scalar MixedLAN.hubHostC.eth.queue outgoingPacketLengths:vector:mean -nan
scalar MixedLAN.hubHostC.eth.queue outgoingPacketLengths:vector:stddev nan
scalar MixedLAN.hubHostC.eth.queue outgoingPacketLengths:vector:min inf
scalar MixedLAN.hubHostC.eth.queue outgoingPacketLengths:vector:max -inf
scalar MixedLAN.hubHostC.eth.queue outgoingPacketLengths:vector:starttime nan
scalar MixedLAN.hubHostC.eth.queue outgoingPacketLengths:vector:endtime nan
scalar MixedLAN.hubHostC.eth.queue outgoingDataRate:vector:count 0
scalar MixedLAN.hubHostC.eth.queue outgoingDataRate:vector:sum 0
scalar MixedLAN.hubHostC.eth.queue outgoingDataRate:vector:sumweights 0
scalar MixedLAN.hubHostC.eth.queue outgoingDataRate:vector:mean -nan
scalar MixedLAN.hubHostC.eth.queue outgoingDataRate:vector:stddev nan
scalar MixedLAN.hubHostC.eth.queue outgoingDataRate:vector:min inf
scalar MixedLAN.hubHostC.eth.queue outgoingDataRate:vector:max -inf
scalar MixedLAN.hubHostC.eth.queue outgoingDataRate:vector:starttime nan
scalar MixedLAN.hubHostC.eth.queue outgoingDataRate:vector:endtime nan
scalar MixedLAN.hubHostC.eth.queue droppedPacketLengthsQueueOverflow:vector:count 0
scalar MixedLAN.hubHostC.eth.queue droppedPacketLengthsQueueOverflow:vector:sum 0
scalar MixedLAN.hubHostC.eth.queue droppedPacketLengthsQueueOverflow:vector:sumweights 0
scalar MixedLAN.hubHostC.eth.queue droppedPacketLengthsQueueOverflow:vector:mean -nan
scalar MixedLAN.hubHostC.eth.queue droppedPacketLengthsQueueOverflow:vector:stddev nan
scalar MixedLAN.hubHostC.eth.queue droppedPacketLengthsQueueOverflow:vector:min inf
scalar MixedLAN.hubHostC.eth.queue droppedPacketLengthsQueueOverflow:vector:max -inf
scalar MixedLAN.hubHostC.eth.queue droppedPacketLengthsQueueOverflow:vector:starttime nan
scalar MixedLAN.hubHostC.eth.queue droppedPacketLengthsQueueOverflow:vector:endtime nan
scalar MixedLAN.hubHostC.eth.queue flowQueueingTime:vector:count 0
scalar MixedLAN.hubHostC.eth.queue flowQueueingTime:vector:sum 0
scalar MixedLAN.hubHostC.eth.queue flowQueueingTime:vector:sumweights 0
scalar MixedLAN.hubHostC.eth.queue flowQueueingTime:vector:mean -nan
scalar MixedLAN.hubHostC.eth.queue flowQueueingTime:vector:stddev nan
scalar MixedLAN.hubHostC.eth.queue flowQueueingTime:vector:min inf
scalar MixedLAN.hubHostC.eth.queue flowQueueingTime:vector:max -inf
scalar MixedLAN.hubHostC.eth.queue flowQueueingTime:vector:starttime nan
scalar MixedLAN.hubHostC.eth.queue flowQueueingTime:vector:endtime nan
scalar MixedLAN.hubHostC.eth.queue flowIncomingDataRate:vector:count 0
scalar MixedLAN.hubHostC.eth.queue flowIncomingDataRate:vector:sum 0
scalar MixedLAN.hubHostC.eth.queue flowIncomingDataRate:vector:sumweights 0
scalar MixedLAN.hubHostC.eth.queue flowIncomingDataRate:vector:mean -nan
scalar MixedLAN.hubHostC.eth.queue flowIncomingDataRate:vector:stddev nan
scalar MixedLAN.hubHostC.eth.queue flowIncomingDataRate:vector:min inf
scalar MixedLAN.hubHostC.eth.queue flowIncomingDataRate:vector:max -inf
scalar MixedLAN.hubHostC.eth.queue flowIncomingDataRate:vector:starttime nan
scalar MixedLAN.hubHostC.eth.queue flowIncomingDataRate:vector:endtime nan
scalar MixedLAN.hubHostC.eth.queue flowOutgoingDataRate:vector:count 0
scalar MixedLAN.hubHostC.eth.queue flowOutgoingDataRate:vector:sum 0
scalar MixedLAN.hubHostC.eth.queue flowOutgoingDataRate:vector:sumweights 0
scalar MixedLAN.hubHostC.eth.queue flowOutgoingDataRate:vector:mean -nan
scalar MixedLAN.hubHostC.eth.queue flowOutgoingDataRate:vector:stddev nan
scalar MixedLAN.hubHostC.eth.queue flowOutgoingDataRate:vector:min inf
scalar MixedLAN.hubHostC.eth.queue flowOutgoingDataRate:vector:max -inf
scalar MixedLAN.hubHostC.eth.queue flowOutgoingDataRate:vector:starttime nan
scalar MixedLAN.hubHostC.eth.queue flowOutgoingDataRate:vector:endtime nan
scalar MixedLAN.hubHostC.eth.mac txPk:vector(packetBytes):count 0
scalar MixedLAN.hubHostC.eth.mac txPk:vector(packetBytes):sum 0
scalar MixedLAN.hubHostC.eth.mac txPk:vector(packetBytes):sumweights 0
scalar MixedLAN.hubHostC.eth.mac txPk:vector(packetBytes):mean -nan
scalar MixedLAN.hubHostC.eth.mac txPk:vector(packetBytes):stddev nan
scalar MixedLAN.hubHostC.eth.mac txPk:vector(packetBytes):min inf
scalar MixedLAN.hubHostC.eth.mac txPk:vector(packetBytes):max -inf
scalar MixedLAN.hubHostC.eth.mac txPk:vector(packetBytes):starttime nan
scalar MixedLAN.hubHostC.eth.mac txPk:vector(packetBytes):endtime nan
scalar MixedLAN.hubHostC.eth.mac rxPkOk:vector(packetBytes):count 0
scalar MixedLAN.hubHostC.eth.mac rxPkOk:vector(packetBytes):sum 0
scalar MixedLAN.hubHostC.eth.mac rxPkOk:vector(packetBytes):sumweights 0
scalar MixedLAN.hubHostC.eth.mac rxPkOk:vector(packetBytes):mean -nan
scalar MixedLAN.hubHostC.eth.mac rxPkOk:vector(packetBytes):stddev nan
scalar MixedLAN.hubHostC.eth.mac rxPkOk:vector(packetBytes):min inf
scalar MixedLAN.hubHostC.eth.mac rxPkOk:vector(packetBytes):max -inf
scalar MixedLAN.hubHostC.eth.mac rxPkOk:vector(packetBytes):starttime nan
scalar MixedLAN.hubHostC.eth.mac rxPkOk:vector(packetBytes):endtime nan
scalar MixedLAN.hubHostC.eth.mac passedUpPk:vector(packetBytes):count 0
scalar MixedLAN.hubHostC.eth.mac passedUpPk:vector(packetBytes):sum 0
scalar MixedLAN.hubHostC.eth.mac passedUpPk:vector(packetBytes):sumweights 0
scalar MixedLAN.hubHostC.eth.mac passedUpPk:vector(packetBytes):mean -nan
scalar MixedLAN.hubHostC.eth.mac passedUpPk:vector(packetBytes):stddev nan
scalar MixedLAN.hubHostC.eth.mac passedUpPk:vector(packetBytes):min inf
scalar MixedLAN.hubHostC.eth.mac passedUpPk:vector(packetBytes):max -inf
scalar MixedLAN.hubHostC.eth.mac passedUpPk:vector(packetBytes):starttime nan
scalar MixedLAN.hubHostC.eth.mac passedUpPk:vector(packetBytes):endtime nan
scalar MixedLAN.hubHostC.eth.mac txPausePkUnits:vector:count 0
scalar MixedLAN.hubHostC.eth.mac txPausePkUnits:vector:sum 0
scalar MixedLAN.hubHostC.eth.mac txPausePkUnits:vector:sumweights 0
scalar MixedLAN.hubHostC.eth.mac txPausePkUnits:vector:mean -nan
scalar MixedLAN.hubHostC.eth.mac txPausePkUnits:vector:stddev nan
scalar MixedLAN.hubHostC.eth.mac txPausePkUnits:vector:min inf
scalar MixedLAN.hubHostC.eth.mac txPausePkUnits:vector:max -inf
scalar MixedLAN.hubHostC.eth.mac txPausePkUnits:vector:starttime nan
scalar MixedLAN.hubHostC.eth.mac txPausePkUnits:vector:endtime nan
scalar MixedLAN.hubHostC.eth.mac rxPausePkUnits:vector:count 0
scalar MixedLAN.hubHostC.eth.mac rxPausePkUnits:vector:sum 0
scalar MixedLAN.hubHostC.eth.mac rxPausePkUnits:vector:sumweights 0
scalar MixedLAN.hubHostC.eth.mac rxPausePkUnits:vector:mean -nan
scalar MixedLAN.hubHostC.eth.mac rxPausePkUnits:vector:stddev nan
scalar MixedLAN.hubHostC.eth.mac rxPausePkUnits:vector:min inf
scalar MixedLAN.hubHostC.eth.mac rxPausePkUnits:vector:max -inf
scalar MixedLAN.hubHostC.eth.mac rxPausePkUnits:vector:starttime nan
scalar MixedLAN.hubHostC.eth.mac rxPausePkUnits:vector:endtime nan
scalar MixedLAN.hubHostC.eth.mac packetReceivedFromUpper:vector(packetBytes):count 0
scalar MixedLAN.hubHostC.eth.mac packetReceivedFromUpper:vector(packetBytes):sum 0
scalar MixedLAN.hubHostC.eth.mac packetReceivedFromUpper:vector(packetBytes):sumweights 0
scalar MixedLAN.hubHostC.eth.mac packetReceivedFromUpper:vector(packetBytes):mean -nan
scalar MixedLAN.hubHostC.eth.mac packetReceivedFromUpper:vector(packetBytes):stddev nan
scalar MixedLAN.hubHostC.eth.mac packetReceivedFromUpper:vector(packetBytes):min inf
scalar MixedLAN.hubHostC.eth.mac packetReceivedFromUpper:vector(packetBytes):max -inf
scalar MixedLAN.hubHostC.eth.mac packetReceivedFromUpper:vector(packetBytes):starttime nan
scalar MixedLAN.hubHostC.eth.mac packetReceivedFromUpper:vector(packetBytes):endtime nan
scalar MixedLAN.hubHostC.eth.mac packetDropIncorrectlyReceived:vector(packetBytes):count 0
scalar MixedLAN.hubHostC.eth.mac packetDropIncorrectlyReceived:vector(packetBytes):sum 0
scalar MixedLAN.hubHostC.eth.mac packetDropIncorrectlyReceived:vector(packetBytes):sumweights 0
scalar MixedLAN.hubHostC.eth.mac packetDropIncorrectlyReceived:vector(packetBytes):mean -nan
scalar MixedLAN.hubHostC.eth.mac packetDropIncorrectlyReceived:vector(packetBytes):stddev nan
scalar MixedLAN.hubHostC.eth.mac packetDropIncorrectlyReceived:vector(packetBytes):min inf
scalar MixedLAN.hubHostC.eth.mac packetDropIncorrectlyReceived:vector(packetBytes):max -inf
scalar MixedLAN.hubHostC.eth.mac packetDropIncorrectlyReceived:vector(packetBytes):starttime nan
scalar MixedLAN.hubHostC.eth.mac packetDropIncorrectlyReceived:vector(packetBytes):endtime nan
scalar MixedLAN.hubHostC.eth.mac packetDropInterfaceDown:vector(packetBytes):count 0
scalar MixedLAN.hubHostC.eth.mac packetDropInterfaceDown:vector(packetBytes):sum 0
scalar MixedLAN.hubHostC.eth.mac packetDropInterfaceDown:vector(packetBytes):sumweights 0
scalar MixedLAN.hubHostC.eth.mac packetDropInterfaceDown:vector(packetBytes):mean -nan
scalar MixedLAN.hubHostC.eth.mac packetDropInterfaceDown:vector(packetBytes):stddev nan
scalar MixedLAN.hubHostC.eth.mac packetDropInterfaceDown:vector(packetBytes):min inf
scalar MixedLAN.hubHostC.eth.mac packetDropInterfaceDown:vector(packetBytes):max -inf
scalar MixedLAN.hubHostC.eth.mac packetDropInterfaceDown:vector(packetBytes):starttime nan
scalar MixedLAN.hubHostC.eth.mac packetDropInterfaceDown:vector(packetBytes):endtime nan
scalar MixedLAN.hubHostC.eth.mac packetDropNotAddressedToUs:vector(packetBytes):count 0
scalar MixedLAN.hubHostC.eth.mac packetDropNotAddressedToUs:vector(packetBytes):sum 0
scalar MixedLAN.hubHostC.eth.mac packetDropNotAddressedToUs:vector(packetBytes):sumweights 0
scalar MixedLAN.hubHostC.eth.mac packetDropNotAddressedToUs:vector(packetBytes):mean -nan
scalar MixedLAN.hubHostC.eth.mac packetDropNotAddressedToUs:vector(packetBytes):stddev nan
scalar MixedLAN.hubHostC.eth.mac packetDropNotAddressedToUs:vector(packetBytes):min inf
scalar MixedLAN.hubHostC.eth.mac packetDropNotAddressedToUs:vector(packetBytes):max -inf
scalar MixedLAN.hubHostC.eth.mac packetDropNotAddressedToUs:vector(packetBytes):starttime nan
scalar MixedLAN.hubHostC.eth.mac packetDropNotAddressedToUs:vector(packetBytes):endtime nan
scalar MixedLAN.hubHostC.eth.mac collision:vector:count 0
scalar MixedLAN.hubHostC.eth.mac collision:vector:sum 0
scalar MixedLAN.hubHostC.eth.mac collision:vector:sumweights 0
scalar MixedLAN.hubHostC.eth.mac collision:vector:mean -nan
scalar MixedLAN.hubHostC.eth.mac collision:vector:stddev nan
scalar MixedLAN.hubHostC.eth.mac collision:vector:min inf
scalar MixedLAN.hubHostC.eth.mac collision:vector:max -inf
scalar MixedLAN.hubHostC.eth.mac collision:vector:starttime nan
scalar MixedLAN.hubHostC.eth.mac collision:vector:endtime nan
scalar MixedLAN.hubHostC.eth.mac backoffSlotsGenerated:vector:count 0
scalar MixedLAN.hubHostC.eth.mac backoffSlotsGenerated:vector:sum 0
scalar MixedLAN.hubHostC.eth.mac backoffSlotsGenerated:vector:sumweights 0
scalar MixedLAN.hubHostC.eth.mac backoffSlotsGenerated:vector:mean -nan
scalar MixedLAN.hubHostC.eth.mac backoffSlotsGenerated:vector:stddev nan
scalar MixedLAN.hubHostC.eth.mac backoffSlotsGenerated:vector:min inf
scalar MixedLAN.hubHostC.eth.mac backoffSlotsGenerated:vector:max -inf
scalar MixedLAN.hubHostC.eth.mac backoffSlotsGenerated:vector:starttime nan
scalar MixedLAN.hubHostC.eth.mac backoffSlotsGenerated:vector:endtime nan
scalar MixedLAN.hubHostC.eth packetDropInterfaceDown:vector(packetBytes):count 0
scalar MixedLAN.hubHostC.eth packetDropInterfaceDown:vector(packetBytes):sum 0
scalar MixedLAN.hubHostC.eth packetDropInterfaceDown:vector(packetBytes):sumweights 0
scalar MixedLAN.hubHostC.eth packetDropInterfaceDown:vector(packetBytes):mean -nan
scalar MixedLAN.hubHostC.eth packetDropInterfaceDown:vector(packetBytes):stddev nan
scalar MixedLAN.hubHostC.eth packetDropInterfaceDown:vector(packetBytes):min inf
scalar MixedLAN.hubHostC.eth packetDropInterfaceDown:vector(packetBytes):max -inf
scalar MixedLAN.hubHostC.eth packetDropInterfaceDown:vector(packetBytes):starttime nan
scalar MixedLAN.hubHostC.eth packetDropInterfaceDown:vector(packetBytes):endtime nan
scalar MixedLAN.hubHostC.eth packetDropNoCarrier:vector(packetBytes):count 0
scalar MixedLAN.hubHostC.eth packetDropNoCarrier:vector(packetBytes):sum 0
scalar MixedLAN.hubHostC.eth packetDropNoCarrier:vector(packetBytes):sumweights 0
scalar MixedLAN.hubHostC.eth packetDropNoCarrier:vector(packetBytes):mean -nan
scalar MixedLAN.hubHostC.eth packetDropNoCarrier:vector(packetBytes):stddev nan
scalar MixedLAN.hubHostC.eth packetDropNoCarrier:vector(packetBytes):min inf
scalar MixedLAN.hubHostC.eth packetDropNoCarrier:vector(packetBytes):max -inf
scalar MixedLAN.hubHostC.eth packetDropNoCarrier:vector(packetBytes):starttime nan
scalar MixedLAN.hubHostC.eth packetDropNoCarrier:vector(packetBytes):endtime nan
scalar MixedLAN.hub packetReceived:vector(packetBytes):count 0
scalar MixedLAN.hub packetReceived:vector(packetBytes):sum 0
scalar MixedLAN.hub packetReceived:vector(packetBytes):sumweights 0
scalar MixedLAN.hub packetReceived:vector(packetBytes):mean -nan
scalar MixedLAN.hub packetReceived:vector(packetBytes):stddev nan
scalar MixedLAN.hub packetReceived:vector(packetBytes):min inf
scalar MixedLAN.hub packetReceived:vector(packetBytes):max -inf
scalar MixedLAN.hub packetReceived:vector(packetBytes):starttime nan
scalar MixedLAN.hub packetReceived:vector(packetBytes):endtime nan

