version 3
run MixedLAN1-0-20240219-17:52:30-107041
attr configname MixedLAN1
attr datetime 20240219-17:52:30
attr datetimef 20240219-175230
attr experiment MixedLAN1
attr inifile omnetpp.ini
attr iterationvars ""
attr iterationvarsd ""
attr iterationvarsf ""
attr measurement ""
attr network MixedLAN
attr processid 107041
attr repetition 0
attr replication #0
attr resultdir results
attr runnumber 0
attr seedset 0
config **.param-recording false
config **.vector-recording false
config image-path /home/levy/workspace/inet/images
config output-scalar-file results/omnetpp.ini-MixedLAN1-#0.sca
config sim-time-limit 1200s
config network MixedLAN
config **.switchHostA.cli.destAddress "\"\""
config **.cli.destAddress "\"switchHostA\""
config **.cli.sendInterval exponential(1s)
config **.cli.reqLength intuniform(50,1400)*1B
config **.cli.respLength intWithUnit(truncnormal(3000B,3000B))
config **.switch*.bridging.typename MacRelayUnit
config sim-time-limit 1200s
config **.vector-recording false
config description (abstract)

scalar MixedLAN.tap1 packetReceived:count 37184
attr interpolationmode none
attr recordingmode count
attr source packetReceived
attr title "packets, count"
scalar MixedLAN.tap1 packetReceived:sum(packetBytes) 40788184
attr interpolationmode none
attr recordingmode sum(packetBytes)
attr source packetReceived
attr title "packets, sum(packetBytes)"
scalar MixedLAN.tap2 packetReceived:count 37184
attr interpolationmode none
attr recordingmode count
attr source packetReceived
attr title "packets, count"
scalar MixedLAN.tap2 packetReceived:sum(packetBytes) 40788184
attr interpolationmode none
attr recordingmode sum(packetBytes)
attr source packetReceived
attr title "packets, sum(packetBytes)"
scalar MixedLAN.tap3 packetReceived:count 37184
attr interpolationmode none
attr recordingmode count
attr source packetReceived
attr title "packets, count"
scalar MixedLAN.tap3 packetReceived:sum(packetBytes) 40788184
attr interpolationmode none
attr recordingmode sum(packetBytes)
attr source packetReceived
attr title "packets, sum(packetBytes)"
scalar MixedLAN.tap4 packetReceived:count 37184
attr interpolationmode none
attr recordingmode count
attr source packetReceived
attr title "packets, count"
scalar MixedLAN.tap4 packetReceived:sum(packetBytes) 40788184
attr interpolationmode none
attr recordingmode sum(packetBytes)
attr source packetReceived
attr title "packets, sum(packetBytes)"
scalar MixedLAN.tap5 packetReceived:count 37184
attr interpolationmode none
attr recordingmode count
attr source packetReceived
attr title "packets, count"
scalar MixedLAN.tap5 packetReceived:sum(packetBytes) 40788184
attr interpolationmode none
attr recordingmode sum(packetBytes)
attr source packetReceived
attr title "packets, sum(packetBytes)"
scalar MixedLAN.tap6 packetReceived:count 37184
attr interpolationmode none
attr recordingmode count
attr source packetReceived
attr title "packets, count"
scalar MixedLAN.tap6 packetReceived:sum(packetBytes) 40788184
attr interpolationmode none
attr recordingmode sum(packetBytes)
attr source packetReceived
attr title "packets, sum(packetBytes)"
scalar MixedLAN.busHostA.cli packetReceived:count 3736
attr interpolationmode none
attr recordingmode count
attr source packetReceived
attr title "packets received, count"
scalar MixedLAN.busHostA.cli packetReceived:sum(packetBytes) 4690691
attr interpolationmode none
attr recordingmode sum(packetBytes)
attr source packetReceived
attr title "packets received, sum(packetBytes)"
statistic MixedLAN.busHostA.cli endToEndDelay:histogram
field count 3736
field mean 0.0029964838391215
field stddev 0.0018060845948058
field min 6.34751e-05
field max 0.0128316851
field sum 11.194863622958
field sqrsum 0.04572857966739
attr interpolationmode none
attr recordingmode histogram
attr source dataAge(packetReceived)
attr title "end-to-end delay"
attr unit s
bin	-inf	0
bin	0	21
bin	0.0002	30
bin	0.0004	24
bin	0.0006	27
bin	0.0008	39
bin	0.001	30
bin	0.0012	1012
bin	0.0014	44
bin	0.0016	50
bin	0.0018	48
bin	0.002	52
bin	0.0022	49
bin	0.0024	742
bin	0.0026	60
bin	0.0028	48
bin	0.003	51
bin	0.0032	50
bin	0.0034	43
bin	0.0036	41
bin	0.0038	465
bin	0.004	33
bin	0.0042	27
bin	0.0044	31
bin	0.0046	41
bin	0.0048	34
bin	0.005	263
bin	0.0052	21
bin	0.0054	32
bin	0.0056	24
bin	0.0058	28
bin	0.006	25
bin	0.0062	97
bin	0.0064	14
bin	0.0066	11
bin	0.0068	11
bin	0.007	15
bin	0.0072	10
bin	0.0074	31
bin	0.0076	6
bin	0.0078	4
bin	0.008	3
bin	0.0082	6
bin	0.0084	2
bin	0.0086	9
bin	0.0088	3
bin	0.009	1
bin	0.0092	6
bin	0.0094	3
bin	0.0096	3
bin	0.0098	0
bin	0.01	3
bin	0.0102	0
bin	0.0104	2
bin	0.0106	1
bin	0.0108	1
bin	0.011	0
bin	0.0112	2
bin	0.0114	1
bin	0.0116	2
bin	0.0118	0
bin	0.012	0
bin	0.0122	1
bin	0.0124	2
bin	0.0126	0
bin	0.0128	1
bin	0.013	0
scalar MixedLAN.busHostA.cli packetSent:count 1207
attr interpolationmode none
attr recordingmode count
attr source packetSent
attr title "packets sent, count"
scalar MixedLAN.busHostA.cli packetSent:sum(packetBytes) 880713
attr interpolationmode none
attr recordingmode sum(packetBytes)
attr source packetSent
attr title "packets sent, sum(packetBytes)"
scalar MixedLAN.busHostA.srv packetReceived:count 0
attr interpolationmode none
attr recordingmode count
attr source packetReceived
attr title "packets received, count"
scalar MixedLAN.busHostA.srv packetReceived:sum(packetBytes) 0
attr interpolationmode none
attr recordingmode sum(packetBytes)
attr source packetReceived
attr title "packets received, sum(packetBytes)"
statistic MixedLAN.busHostA.srv endToEndDelay:histogram
field count 0
field mean -nan
field stddev nan
field min nan
field max nan
field sum 0
field sqrsum 0
attr interpolationmode none
attr recordingmode histogram
attr source dataAge(packetReceived)
attr title "end-to-end delay"
attr unit s
bin	-inf	0
bin	0	0
bin	1	0
scalar MixedLAN.busHostA.srv packetSent:count 0
attr interpolationmode none
attr recordingmode count
attr source packetSent
attr title "packets sent, count"
scalar MixedLAN.busHostA.srv packetSent:sum(packetBytes) 0
attr interpolationmode none
attr recordingmode sum(packetBytes)
attr source packetSent
attr title "packets sent, sum(packetBytes)"
scalar MixedLAN.busHostA.encap pauseSent:count 0
attr recordingmode count
attr title "pause sent, count"
scalar MixedLAN.busHostA.encap pauseSent:sum 0
attr recordingmode sum
attr title "pause sent, sum"
scalar MixedLAN.busHostA.encap decapPk:count 3736
attr interpolationmode none
attr recordingmode count
attr source decapPk
attr title "packets decapsulated, count"
scalar MixedLAN.busHostA.encap decapPk:sum(packetBytes) 4701899
attr interpolationmode none
attr recordingmode sum(packetBytes)
attr source decapPk
attr title "packets decapsulated, sum(packetBytes)"
scalar MixedLAN.busHostA.encap encapPk:count 1207
attr interpolationmode none
attr recordingmode count
attr source encapPk
attr title "packets encapsulated, count"
scalar MixedLAN.busHostA.encap encapPk:sum(packetBytes) 884334
attr interpolationmode none
attr recordingmode sum(packetBytes)
attr source encapPk
attr title "packets encapsulated, sum(packetBytes)"
scalar MixedLAN.busHostA.eth.queue queueLength:last 0
attr autoWarmupFilter false
attr interpolationmode sample-hold
attr recordingmode last
attr source "warmup(atomic(constant0(packetPushEnded) + count(packetPushStarted) - count(packetPulled) - count(packetRemoved) - count(packetDropped)))"
attr title "queue length, last"
attr unit pk
scalar MixedLAN.busHostA.eth.queue queueLength:max 1
attr autoWarmupFilter false
attr interpolationmode sample-hold
attr recordingmode max
attr source "warmup(atomic(constant0(packetPushEnded) + count(packetPushStarted) - count(packetPulled) - count(packetRemoved) - count(packetDropped)))"
attr title "queue length, max"
attr unit pk
scalar MixedLAN.busHostA.eth.queue queueLength:timeavg 1.69466890575e-05
attr autoWarmupFilter false
attr interpolationmode sample-hold
attr recordingmode timeavg
attr source "warmup(atomic(constant0(packetPushEnded) + count(packetPushStarted) - count(packetPulled) - count(packetRemoved) - count(packetDropped)))"
attr title "queue length, timeavg"
attr unit pk
scalar MixedLAN.busHostA.eth.queue queueBitLength:last 0
attr autoWarmupFilter false
attr interpolationmode sample-hold
attr recordingmode last
attr source "warmup(atomic(constant0(packetPushEnded) + sum(packetLength(packetPushStarted)) - sum(packetLength(packetPulled)) - sum(packetLength(packetRemoved)) - sum(packetLength(packetDropped))))"
attr title "queue bit length, last"
attr unit b
scalar MixedLAN.busHostA.eth.queue queueBitLength:max 10752
attr autoWarmupFilter false
attr interpolationmode sample-hold
attr recordingmode max
attr source "warmup(atomic(constant0(packetPushEnded) + sum(packetLength(packetPushStarted)) - sum(packetLength(packetPulled)) - sum(packetLength(packetRemoved)) - sum(packetLength(packetDropped))))"
attr title "queue bit length, max"
attr unit b
scalar MixedLAN.busHostA.eth.queue queueBitLength:timeavg 0.09162289594496
attr autoWarmupFilter false
attr interpolationmode sample-hold
attr recordingmode timeavg
attr source "warmup(atomic(constant0(packetPushEnded) + sum(packetLength(packetPushStarted)) - sum(packetLength(packetPulled)) - sum(packetLength(packetRemoved)) - sum(packetLength(packetDropped))))"
attr title "queue bit length, timeavg"
attr unit b
statistic MixedLAN.busHostA.eth.queue queueingTime:histogram
field count 1207
field mean 1.684840668517e-05
field stddev 0.00011271821425401
field min 0
field max 0.001167474523
field sum 0.020336026869
field sqrsum 1.5665337015533e-05
attr interpolationmode none
attr recordingmode histogram
attr source queueingTime(packetPulled)
attr title "queueing times"
attr unit s
bin	-inf	0
bin	0	1172
bin	2e-05	0
bin	4e-05	3
bin	6e-05	0
bin	8e-05	0
bin	0.0001	0
bin	0.00012	1
bin	0.00014	0
bin	0.00016	0
bin	0.00018	0
bin	0.0002	1
bin	0.00022	1
bin	0.00024	0
bin	0.00026	1
bin	0.00028	1
bin	0.0003	0
bin	0.00032	3
bin	0.00034	2
bin	0.00036	1
bin	0.00038	0
bin	0.0004	0
bin	0.00042	0
bin	0.00044	1
bin	0.00046	1
bin	0.00048	1
bin	0.0005	0
bin	0.00052	0
bin	0.00054	1
bin	0.00056	1
bin	0.00058	0
bin	0.0006	0
bin	0.00062	1
bin	0.00064	0
bin	0.00066	0
bin	0.00068	0
bin	0.0007	1
bin	0.00072	0
bin	0.00074	1
bin	0.00076	0
bin	0.00078	1
bin	0.0008	0
bin	0.00082	2
bin	0.00084	1
bin	0.00086	0
bin	0.00088	1
bin	0.0009	2
bin	0.00092	0
bin	0.00094	1
bin	0.00096	0
bin	0.00098	1
bin	0.001	0
bin	0.00102	0
bin	0.00104	1
bin	0.00106	0
bin	0.00108	1
bin	0.0011	1
bin	0.00112	0
bin	0.00114	0
bin	0.00116	1
bin	0.00118	0
bin	0.0012	0
scalar MixedLAN.busHostA.eth.queue outgoingPackets:count 1207
attr recordingmode count
attr source packetPulled
attr title "outgoing packets, count"
attr unit pk
scalar MixedLAN.busHostA.eth.queue outgoingPacketLengths:sum 7248480
attr interpolationmode none
attr recordingmode sum
attr source packetLength(packetPulled)
attr title "outgoing packet lengths, sum"
attr unit b
statistic MixedLAN.busHostA.eth.queue outgoingPacketLengths:histogram
field count 1207
field mean 6005.3686826843
field stddev 3119.1179977191
field min 568
field max 11368
field sum 7248480
field sqrsum 55262844672
attr interpolationmode none
attr recordingmode histogram
attr source packetLength(packetPulled)
attr title "outgoing packet lengths"
attr unit b
bin	-inf	0
bin	0	0
bin	200	0
bin	400	2
bin	600	18
bin	800	20
bin	1000	23
bin	1200	24
bin	1400	16
bin	1600	27
bin	1800	20
bin	2000	16
bin	2200	29
bin	2400	24
bin	2600	22
bin	2800	28
bin	3000	27
bin	3200	26
bin	3400	22
bin	3600	16
bin	3800	23
bin	4000	28
bin	4200	19
bin	4400	25
bin	4600	19
bin	4800	27
bin	5000	15
bin	5200	22
bin	5400	20
bin	5600	31
bin	5800	23
bin	6000	23
bin	6200	16
bin	6400	17
bin	6600	26
bin	6800	25
bin	7000	15
bin	7200	13
bin	7400	24
bin	7600	23
bin	7800	17
bin	8000	21
bin	8200	24
bin	8400	30
bin	8600	20
bin	8800	24
bin	9000	31
bin	9200	22
bin	9400	22
bin	9600	21
bin	9800	23
bin	10000	24
bin	10200	27
bin	10400	21
bin	10600	24
bin	10800	22
bin	11000	22
bin	11200	18
bin	11400	0
bin	11600	0
bin	11800	0
bin	12000	0
bin	12200	0
bin	12400	0
bin	12600	0
bin	12800	0
bin	13000	0
bin	13200	0
bin	13400	0
bin	13600	0
bin	13800	0
bin	14000	0
bin	14200	0
statistic MixedLAN.busHostA.eth.queue flowQueueingTime:histogram
field count 0
field mean -nan
field stddev nan
field min nan
field max nan
field sum 0
field sqrsum 0
attr interpolationmode none
attr recordingmode histogram
attr source queueingTime(demuxFlow(packetPulled))
attr title "flow queueing times"
attr unit s
bin	-inf	0
bin	0	0
bin	1	0
scalar MixedLAN.busHostA.eth.queue incomingPackets:count 1207
attr recordingmode count
attr source packetPushStarted
attr title "incoming packets, count"
attr unit pk
scalar MixedLAN.busHostA.eth.queue incomingPacketLengths:sum 7248480
attr interpolationmode none
attr recordingmode sum
attr source packetLength(packetPushStarted)
attr title "incoming packet lengths, sum"
attr unit b
statistic MixedLAN.busHostA.eth.queue incomingPacketLengths:histogram
field count 1207
field mean 6005.3686826843
field stddev 3119.1179977191
field min 568
field max 11368
field sum 7248480
field sqrsum 55262844672
attr interpolationmode none
attr recordingmode histogram
attr source packetLength(packetPushStarted)
attr title "incoming packet lengths"
attr unit b
bin	-inf	0
bin	0	0
bin	200	0
bin	400	2
bin	600	18
bin	800	20
bin	1000	23
bin	1200	24
bin	1400	16
bin	1600	27
bin	1800	20
bin	2000	16
bin	2200	29
bin	2400	24
bin	2600	22
bin	2800	28
bin	3000	27
bin	3200	26
bin	3400	22
bin	3600	16
bin	3800	23
bin	4000	28
bin	4200	19
bin	4400	25
bin	4600	19
bin	4800	27
bin	5000	15
bin	5200	22
bin	5400	20
bin	5600	31
bin	5800	23
bin	6000	23
bin	6200	16
bin	6400	17
bin	6600	26
bin	6800	25
bin	7000	15
bin	7200	13
bin	7400	24
bin	7600	23
bin	7800	17
bin	8000	21
bin	8200	24
bin	8400	30
bin	8600	20
bin	8800	24
bin	9000	31
bin	9200	22
bin	9400	22
bin	9600	21
bin	9800	23
bin	10000	24
bin	10200	27
bin	10400	21
bin	10600	24
bin	10800	22
bin	11000	22
bin	11200	18
bin	11400	0
bin	11600	0
bin	11800	0
bin	12000	0
bin	12200	0
bin	12400	0
bin	12600	0
bin	12800	0
bin	13000	0
bin	13200	0
bin	13400	0
bin	13600	0
bin	13800	0
bin	14000	0
bin	14200	0
scalar MixedLAN.busHostA.eth.queue droppedPacketsQueueOverflow:count 0
attr interpolationmode none
attr recordingmode count
attr source packetDropReasonIsQueueOverflow(packetDropped)
attr title "dropped packets: queue overflow, count"
attr unit pk
scalar MixedLAN.busHostA.eth.queue droppedPacketLengthsQueueOverflow:sum 0
attr interpolationmode none
attr recordingmode sum
attr source packetLength(packetDropReasonIsQueueOverflow(packetDropped))
attr title "dropped packet lengths: queue overflow, sum"
attr unit b
scalar MixedLAN.busHostA.eth.mac "simulated time" 1200
scalar MixedLAN.busHostA.eth.mac full-duplex 0
scalar MixedLAN.busHostA.eth.mac "frames/sec sent" 1.0058333333333
scalar MixedLAN.busHostA.eth.mac "frames/sec rcvd" 3.1133333333333
scalar MixedLAN.busHostA.eth.mac "bits/sec sent" 6040.4
scalar MixedLAN.busHostA.eth.mac "bits/sec rcvd" 31799.433333333
scalar MixedLAN.busHostA.eth.mac "rx channel idle (%)" 97.336916148125
scalar MixedLAN.busHostA.eth.mac "rx channel utilization (%)" 2.6629673333333
scalar MixedLAN.busHostA.eth.mac "rx channel collision (%)" 0.00011651854166667
scalar MixedLAN.busHostA.eth.mac collisions 416
scalar MixedLAN.busHostA.eth.mac backoffs 50
scalar MixedLAN.busHostA.eth.mac backoffSlotsGenerated:count 50
attr interpolationmode none
attr recordingmode count
attr title "backoff, count"
scalar MixedLAN.busHostA.eth.mac collision:count 416
attr interpolationmode none
attr recordingmode count
attr title "collision, count"
scalar MixedLAN.busHostA.eth.mac rxPausePkUnits:count 0
attr interpolationmode none
attr recordingmode count
attr title "pause units received, count"
scalar MixedLAN.busHostA.eth.mac rxPausePkUnits:sum 0
attr interpolationmode none
attr recordingmode sum
attr title "pause units received, sum"
scalar MixedLAN.busHostA.eth.mac txPausePkUnits:count 0
attr interpolationmode none
attr recordingmode count
attr title "pause units sent, count"
scalar MixedLAN.busHostA.eth.mac txPausePkUnits:sum 0
attr interpolationmode none
attr recordingmode sum
attr title "pause units sent, sum"
scalar MixedLAN.busHostA.eth.mac rxPkOk:count 3736
attr interpolationmode none
attr recordingmode count
attr source rxPkOk
attr title "packets received OK, count"
scalar MixedLAN.busHostA.eth.mac rxPkOk:sum(packetBytes) 4769915
attr interpolationmode none
attr recordingmode sum(packetBytes)
attr source rxPkOk
attr title "packets received OK, sum(packetBytes)"
scalar MixedLAN.busHostA.eth.mac txPk:count 1207
attr interpolationmode none
attr recordingmode count
attr source packetSentToLower
attr title "packets transmitted, count"
scalar MixedLAN.busHostA.eth.mac txPk:sum(packetBytes) 906060
attr interpolationmode none
attr recordingmode sum(packetBytes)
attr source packetSentToLower
attr title "packets transmitted, sum(packetBytes)"
scalar MixedLAN.busHostA.eth.mac packetReceivedFromUpper:count 1207
attr interpolationmode none
attr recordingmode count
attr source packetReceivedFromUpper
attr title "packet bytes from higher layer, count"
scalar MixedLAN.busHostA.eth.mac packetReceivedFromUpper:sum(packetBytes) 906060
attr interpolationmode none
attr recordingmode sum(packetBytes)
attr source packetReceivedFromUpper
attr title "packet bytes from higher layer, sum(packetBytes)"
scalar MixedLAN.busHostA.eth.mac passedUpPk:count 3736
attr interpolationmode none
attr recordingmode count
attr source packetSentToUpper
attr title "packets passed to higher layer, count"
scalar MixedLAN.busHostA.eth.mac passedUpPk:sum(packetBytes) 4769915
attr interpolationmode none
attr recordingmode sum(packetBytes)
attr source packetSentToUpper
attr title "packets passed to higher layer, sum(packetBytes)"
scalar MixedLAN.busHostA.eth.mac packetDropIncorrectlyReceived:count 0
attr interpolationmode none
attr recordingmode count
attr source packetDropReasonIsIncorrectlyReceived(packetDropped)
attr title "packet drop: incorrectly received, count"
scalar MixedLAN.busHostA.eth.mac packetDropIncorrectlyReceived:sum(packetBytes) 0
attr interpolationmode none
attr recordingmode sum(packetBytes)
attr source packetDropReasonIsIncorrectlyReceived(packetDropped)
attr title "packet drop: incorrectly received, sum(packetBytes)"
scalar MixedLAN.busHostA.eth.mac packetDropInterfaceDown:count 0
attr interpolationmode none
attr recordingmode count
attr source packetDropReasonIsInterfaceDown(packetDropped)
attr title "packet drop: interface down, count"
scalar MixedLAN.busHostA.eth.mac packetDropInterfaceDown:sum(packetBytes) 0
attr interpolationmode none
attr recordingmode sum(packetBytes)
attr source packetDropReasonIsInterfaceDown(packetDropped)
attr title "packet drop: interface down, sum(packetBytes)"
scalar MixedLAN.busHostA.eth.mac packetDropNotAddressedToUs:count 29739
attr interpolationmode none
attr recordingmode count
attr source packetDropReasonIsNotAddressedToUs(packetDropped)
attr title "packet drop: not addressed to us, count"
scalar MixedLAN.busHostA.eth.mac packetDropNotAddressedToUs:sum(packetBytes) 33991079
attr interpolationmode none
attr recordingmode sum(packetBytes)
attr source packetDropReasonIsNotAddressedToUs(packetDropped)
attr title "packet drop: not addressed to us, sum(packetBytes)"
scalar MixedLAN.busHostA.eth packetDropInterfaceDown:count 0
attr interpolationmode none
attr recordingmode count
attr source packetDropReasonIsInterfaceDown(packetDropped)
attr title "packet drops: interface down, count"
scalar MixedLAN.busHostA.eth packetDropInterfaceDown:sum(packetBytes) 0
attr interpolationmode none
attr recordingmode sum(packetBytes)
attr source packetDropReasonIsInterfaceDown(packetDropped)
attr title "packet drops: interface down, sum(packetBytes)"
scalar MixedLAN.busHostA.eth packetDropNoCarrier:count 0
attr interpolationmode none
attr recordingmode count
attr source packetDropReasonIsNoCarrier(packetDropped)
attr title "packet drops: no carrier, count"
scalar MixedLAN.busHostA.eth packetDropNoCarrier:sum(packetBytes) 0
attr interpolationmode none
attr recordingmode sum(packetBytes)
attr source packetDropReasonIsNoCarrier(packetDropped)
attr title "packet drops: no carrier, sum(packetBytes)"
scalar MixedLAN.busHostB.cli packetReceived:count 3703
attr interpolationmode none
attr recordingmode count
attr source packetReceived
attr title "packets received, count"
scalar MixedLAN.busHostB.cli packetReceived:sum(packetBytes) 4603363
attr interpolationmode none
attr recordingmode sum(packetBytes)
attr source packetReceived
attr title "packets received, sum(packetBytes)"
statistic MixedLAN.busHostB.cli endToEndDelay:histogram
field count 3703
field mean 0.0029468860163576
field stddev 0.0017471073946597
field min 6.34251e-05
field max 0.0128401951
field sum 10.912318918572
field sqrsum 0.043457286515027
attr interpolationmode none
attr recordingmode histogram
attr source dataAge(packetReceived)
attr title "end-to-end delay"
attr unit s
bin	-inf	0
bin	0	22
bin	0.0002	36
bin	0.0004	22
bin	0.0006	35
bin	0.0008	31
bin	0.001	32
bin	0.0012	1009
bin	0.0014	51
bin	0.0016	64
bin	0.0018	44
bin	0.002	52
bin	0.0022	43
bin	0.0024	731
bin	0.0026	49
bin	0.0028	45
bin	0.003	38
bin	0.0032	61
bin	0.0034	51
bin	0.0036	45
bin	0.0038	459
bin	0.004	50
bin	0.0042	45
bin	0.0044	41
bin	0.0046	25
bin	0.0048	27
bin	0.005	225
bin	0.0052	35
bin	0.0054	30
bin	0.0056	21
bin	0.0058	24
bin	0.006	16
bin	0.0062	94
bin	0.0064	14
bin	0.0066	14
bin	0.0068	15
bin	0.007	12
bin	0.0072	11
bin	0.0074	32
bin	0.0076	6
bin	0.0078	7
bin	0.008	5
bin	0.0082	5
bin	0.0084	3
bin	0.0086	10
bin	0.0088	0
bin	0.009	1
bin	0.0092	3
bin	0.0094	2
bin	0.0096	2
bin	0.0098	2
bin	0.01	1
bin	0.0102	1
bin	0.0104	2
bin	0.0106	0
bin	0.0108	0
bin	0.011	0
bin	0.0112	0
bin	0.0114	0
bin	0.0116	1
bin	0.0118	0
bin	0.012	0
bin	0.0122	0
bin	0.0124	0
bin	0.0126	0
bin	0.0128	1
bin	0.013	0
scalar MixedLAN.busHostB.cli packetSent:count 1212
attr interpolationmode none
attr recordingmode count
attr source packetSent
attr title "packets sent, count"
scalar MixedLAN.busHostB.cli packetSent:sum(packetBytes) 873919
attr interpolationmode none
attr recordingmode sum(packetBytes)
attr source packetSent
attr title "packets sent, sum(packetBytes)"
scalar MixedLAN.busHostB.srv packetReceived:count 0
attr interpolationmode none
attr recordingmode count
attr source packetReceived
attr title "packets received, count"
scalar MixedLAN.busHostB.srv packetReceived:sum(packetBytes) 0
attr interpolationmode none
attr recordingmode sum(packetBytes)
attr source packetReceived
attr title "packets received, sum(packetBytes)"
statistic MixedLAN.busHostB.srv endToEndDelay:histogram
field count 0
field mean -nan
field stddev nan
field min nan
field max nan
field sum 0
field sqrsum 0
attr interpolationmode none
attr recordingmode histogram
attr source dataAge(packetReceived)
attr title "end-to-end delay"
attr unit s
bin	-inf	0
bin	0	0
bin	1	0
scalar MixedLAN.busHostB.srv packetSent:count 0
attr interpolationmode none
attr recordingmode count
attr source packetSent
attr title "packets sent, count"
scalar MixedLAN.busHostB.srv packetSent:sum(packetBytes) 0
attr interpolationmode none
attr recordingmode sum(packetBytes)
attr source packetSent
attr title "packets sent, sum(packetBytes)"
scalar MixedLAN.busHostB.encap pauseSent:count 0
attr recordingmode count
attr title "pause sent, count"
scalar MixedLAN.busHostB.encap pauseSent:sum 0
attr recordingmode sum
attr title "pause sent, sum"
scalar MixedLAN.busHostB.encap decapPk:count 3703
attr interpolationmode none
attr recordingmode count
attr source decapPk
attr title "packets decapsulated, count"
scalar MixedLAN.busHostB.encap decapPk:sum(packetBytes) 4614472
attr interpolationmode none
attr recordingmode sum(packetBytes)
attr source decapPk
attr title "packets decapsulated, sum(packetBytes)"
scalar MixedLAN.busHostB.encap encapPk:count 1212
attr interpolationmode none
attr recordingmode count
attr source encapPk
attr title "packets encapsulated, count"
scalar MixedLAN.busHostB.encap encapPk:sum(packetBytes) 877555
attr interpolationmode none
attr recordingmode sum(packetBytes)
attr source encapPk
attr title "packets encapsulated, sum(packetBytes)"
scalar MixedLAN.busHostB.eth.queue queueLength:last 0
attr autoWarmupFilter false
attr interpolationmode sample-hold
attr recordingmode last
attr source "warmup(atomic(constant0(packetPushEnded) + count(packetPushStarted) - count(packetPulled) - count(packetRemoved) - count(packetDropped)))"
attr title "queue length, last"
attr unit pk
scalar MixedLAN.busHostB.eth.queue queueLength:max 1
attr autoWarmupFilter false
attr interpolationmode sample-hold
attr recordingmode max
attr source "warmup(atomic(constant0(packetPushEnded) + count(packetPushStarted) - count(packetPulled) - count(packetRemoved) - count(packetDropped)))"
attr title "queue length, max"
attr unit pk
scalar MixedLAN.busHostB.eth.queue queueLength:timeavg 1.0645552826667e-05
attr autoWarmupFilter false
attr interpolationmode sample-hold
attr recordingmode timeavg
attr source "warmup(atomic(constant0(packetPushEnded) + count(packetPushStarted) - count(packetPulled) - count(packetRemoved) - count(packetDropped)))"
attr title "queue length, timeavg"
attr unit pk
scalar MixedLAN.busHostB.eth.queue queueBitLength:last 0
attr autoWarmupFilter false
attr interpolationmode sample-hold
attr recordingmode last
attr source "warmup(atomic(constant0(packetPushEnded) + sum(packetLength(packetPushStarted)) - sum(packetLength(packetPulled)) - sum(packetLength(packetRemoved)) - sum(packetLength(packetDropped))))"
attr title "queue bit length, last"
attr unit b
scalar MixedLAN.busHostB.eth.queue queueBitLength:max 10784
attr autoWarmupFilter false
attr interpolationmode sample-hold
attr recordingmode max
attr source "warmup(atomic(constant0(packetPushEnded) + sum(packetLength(packetPushStarted)) - sum(packetLength(packetPulled)) - sum(packetLength(packetRemoved)) - sum(packetLength(packetDropped))))"
attr title "queue bit length, max"
attr unit b
scalar MixedLAN.busHostB.eth.queue queueBitLength:timeavg 0.059896676356213
attr autoWarmupFilter false
attr interpolationmode sample-hold
attr recordingmode timeavg
attr source "warmup(atomic(constant0(packetPushEnded) + sum(packetLength(packetPushStarted)) - sum(packetLength(packetPulled)) - sum(packetLength(packetRemoved)) - sum(packetLength(packetDropped))))"
attr title "queue bit length, timeavg"
attr unit b
statistic MixedLAN.busHostB.eth.queue queueingTime:histogram
field count 1212
field mean 1.0540151313531e-05
field stddev 7.9515878883886e-05
field min 0
field max 0.000961414796
field sum 0.012774663392
field sqrsum 7.7915274036847e-06
attr interpolationmode none
attr recordingmode histogram
attr source queueingTime(packetPulled)
attr title "queueing times"
attr unit s
bin	-inf	0
bin	0	1181
bin	2e-05	2
bin	4e-05	2
bin	6e-05	1
bin	8e-05	0
bin	0.0001	1
bin	0.00012	0
bin	0.00014	1
bin	0.00016	0
bin	0.00018	1
bin	0.0002	2
bin	0.00022	0
bin	0.00024	2
bin	0.00026	1
bin	0.00028	2
bin	0.0003	0
bin	0.00032	1
bin	0.00034	0
bin	0.00036	0
bin	0.00038	0
bin	0.0004	1
bin	0.00042	1
bin	0.00044	0
bin	0.00046	2
bin	0.00048	0
bin	0.0005	0
bin	0.00052	1
bin	0.00054	1
bin	0.00056	0
bin	0.00058	0
bin	0.0006	0
bin	0.00062	0
bin	0.00064	0
bin	0.00066	2
bin	0.00068	0
bin	0.0007	1
bin	0.00072	1
bin	0.00074	1
bin	0.00076	0
bin	0.00078	0
bin	0.0008	1
bin	0.00082	0
bin	0.00084	0
bin	0.00086	0
bin	0.00088	0
bin	0.0009	1
bin	0.00092	0
bin	0.00094	1
bin	0.00096	1
bin	0.00098	0
scalar MixedLAN.busHostB.eth.queue outgoingPackets:count 1212
attr recordingmode count
attr source packetPulled
attr title "outgoing packets, count"
attr unit pk
scalar MixedLAN.busHostB.eth.queue outgoingPacketLengths:sum 7194968
attr interpolationmode none
attr recordingmode sum
attr source packetLength(packetPulled)
attr title "outgoing packet lengths, sum"
attr unit b
statistic MixedLAN.busHostB.eth.queue outgoingPacketLengths:histogram
field count 1212
field mean 5936.4422442244
field stddev 3085.5972587815
field min 568
field max 11352
field sum 7194968
field sqrsum 54242334528
attr interpolationmode none
attr recordingmode histogram
attr source packetLength(packetPulled)
attr title "outgoing packet lengths"
attr unit b
bin	-inf	0
bin	0	0
bin	200	0
bin	400	3
bin	600	21
bin	800	21
bin	1000	25
bin	1200	24
bin	1400	21
bin	1600	26
bin	1800	16
bin	2000	19
bin	2200	23
bin	2400	26
bin	2600	31
bin	2800	20
bin	3000	21
bin	3200	23
bin	3400	26
bin	3600	23
bin	3800	17
bin	4000	22
bin	4200	26
bin	4400	25
bin	4600	21
bin	4800	20
bin	5000	21
bin	5200	12
bin	5400	26
bin	5600	26
bin	5800	23
bin	6000	24
bin	6200	14
bin	6400	19
bin	6600	34
bin	6800	16
bin	7000	24
bin	7200	20
bin	7400	25
bin	7600	32
bin	7800	22
bin	8000	27
bin	8200	25
bin	8400	26
bin	8600	21
bin	8800	25
bin	9000	21
bin	9200	23
bin	9400	25
bin	9600	20
bin	9800	20
bin	10000	26
bin	10200	23
bin	10400	19
bin	10600	17
bin	10800	14
bin	11000	23
bin	11200	19
bin	11400	0
bin	11600	0
bin	11800	0
bin	12000	0
bin	12200	0
bin	12400	0
bin	12600	0
bin	12800	0
bin	13000	0
bin	13200	0
bin	13400	0
bin	13600	0
bin	13800	0
bin	14000	0
statistic MixedLAN.busHostB.eth.queue flowQueueingTime:histogram
field count 0
field mean -nan
field stddev nan
field min nan
field max nan
field sum 0
field sqrsum 0
attr interpolationmode none
attr recordingmode histogram
attr source queueingTime(demuxFlow(packetPulled))
attr title "flow queueing times"
attr unit s
bin	-inf	0
bin	0	0
bin	1	0
scalar MixedLAN.busHostB.eth.queue incomingPackets:count 1212
attr recordingmode count
attr source packetPushStarted
attr title "incoming packets, count"
attr unit pk
scalar MixedLAN.busHostB.eth.queue incomingPacketLengths:sum 7194968
attr interpolationmode none
attr recordingmode sum
attr source packetLength(packetPushStarted)
attr title "incoming packet lengths, sum"
attr unit b
statistic MixedLAN.busHostB.eth.queue incomingPacketLengths:histogram
field count 1212
field mean 5936.4422442244
field stddev 3085.5972587815
field min 568
field max 11352
field sum 7194968
field sqrsum 54242334528
attr interpolationmode none
attr recordingmode histogram
attr source packetLength(packetPushStarted)
attr title "incoming packet lengths"
attr unit b
bin	-inf	0
bin	0	0
bin	200	0
bin	400	3
bin	600	21
bin	800	21
bin	1000	25
bin	1200	24
bin	1400	21
bin	1600	26
bin	1800	16
bin	2000	19
bin	2200	23
bin	2400	26
bin	2600	31
bin	2800	20
bin	3000	21
bin	3200	23
bin	3400	26
bin	3600	23
bin	3800	17
bin	4000	22
bin	4200	26
bin	4400	25
bin	4600	21
bin	4800	20
bin	5000	21
bin	5200	12
bin	5400	26
bin	5600	26
bin	5800	23
bin	6000	24
bin	6200	14
bin	6400	19
bin	6600	34
bin	6800	16
bin	7000	24
bin	7200	20
bin	7400	25
bin	7600	32
bin	7800	22
bin	8000	27
bin	8200	25
bin	8400	26
bin	8600	21
bin	8800	25
bin	9000	21
bin	9200	23
bin	9400	25
bin	9600	20
bin	9800	20
bin	10000	26
bin	10200	23
bin	10400	19
bin	10600	17
bin	10800	14
bin	11000	23
bin	11200	19
bin	11400	0
bin	11600	0
bin	11800	0
bin	12000	0
bin	12200	0
bin	12400	0
bin	12600	0
bin	12800	0
bin	13000	0
bin	13200	0
bin	13400	0
bin	13600	0
bin	13800	0
bin	14000	0
scalar MixedLAN.busHostB.eth.queue droppedPacketsQueueOverflow:count 0
attr interpolationmode none
attr recordingmode count
attr source packetDropReasonIsQueueOverflow(packetDropped)
attr title "dropped packets: queue overflow, count"
attr unit pk
scalar MixedLAN.busHostB.eth.queue droppedPacketLengthsQueueOverflow:sum 0
attr interpolationmode none
attr recordingmode sum
attr source packetLength(packetDropReasonIsQueueOverflow(packetDropped))
attr title "dropped packet lengths: queue overflow, sum"
attr unit b
scalar MixedLAN.busHostB.eth.mac "simulated time" 1200
scalar MixedLAN.busHostB.eth.mac full-duplex 0
scalar MixedLAN.busHostB.eth.mac "frames/sec sent" 1.01
scalar MixedLAN.busHostB.eth.mac "frames/sec rcvd" 3.0858333333333
scalar MixedLAN.busHostB.eth.mac "bits/sec sent" 5995.8066666667
scalar MixedLAN.busHostB.eth.mac "bits/sec rcvd" 31213.92
scalar MixedLAN.busHostB.eth.mac "rx channel idle (%)" 97.336916148125
scalar MixedLAN.busHostB.eth.mac "rx channel utilization (%)" 2.6629673333333
scalar MixedLAN.busHostB.eth.mac "rx channel collision (%)" 0.00011651854166667
scalar MixedLAN.busHostB.eth.mac collisions 416
scalar MixedLAN.busHostB.eth.mac backoffs 53
scalar MixedLAN.busHostB.eth.mac backoffSlotsGenerated:count 53
attr interpolationmode none
attr recordingmode count
attr title "backoff, count"
scalar MixedLAN.busHostB.eth.mac collision:count 416
attr interpolationmode none
attr recordingmode count
attr title "collision, count"
scalar MixedLAN.busHostB.eth.mac rxPausePkUnits:count 0
attr interpolationmode none
attr recordingmode count
attr title "pause units received, count"
scalar MixedLAN.busHostB.eth.mac rxPausePkUnits:sum 0
attr interpolationmode none
attr recordingmode sum
attr title "pause units received, sum"
scalar MixedLAN.busHostB.eth.mac txPausePkUnits:count 0
attr interpolationmode none
attr recordingmode count
attr title "pause units sent, count"
scalar MixedLAN.busHostB.eth.mac txPausePkUnits:sum 0
attr interpolationmode none
attr recordingmode sum
attr title "pause units sent, sum"
scalar MixedLAN.busHostB.eth.mac rxPkOk:count 3703
attr interpolationmode none
attr recordingmode count
attr source rxPkOk
attr title "packets received OK, count"
scalar MixedLAN.busHostB.eth.mac rxPkOk:sum(packetBytes) 4682088
attr interpolationmode none
attr recordingmode sum(packetBytes)
attr source rxPkOk
attr title "packets received OK, sum(packetBytes)"
scalar MixedLAN.busHostB.eth.mac txPk:count 1212
attr interpolationmode none
attr recordingmode count
attr source packetSentToLower
attr title "packets transmitted, count"
scalar MixedLAN.busHostB.eth.mac txPk:sum(packetBytes) 899371
attr interpolationmode none
attr recordingmode sum(packetBytes)
attr source packetSentToLower
attr title "packets transmitted, sum(packetBytes)"
scalar MixedLAN.busHostB.eth.mac packetReceivedFromUpper:count 1212
attr interpolationmode none
attr recordingmode count
attr source packetReceivedFromUpper
attr title "packet bytes from higher layer, count"
scalar MixedLAN.busHostB.eth.mac packetReceivedFromUpper:sum(packetBytes) 899371
attr interpolationmode none
attr recordingmode sum(packetBytes)
attr source packetReceivedFromUpper
attr title "packet bytes from higher layer, sum(packetBytes)"
scalar MixedLAN.busHostB.eth.mac passedUpPk:count 3703
attr interpolationmode none
attr recordingmode count
attr source packetSentToUpper
attr title "packets passed to higher layer, count"
scalar MixedLAN.busHostB.eth.mac passedUpPk:sum(packetBytes) 4682088
attr interpolationmode none
attr recordingmode sum(packetBytes)
attr source packetSentToUpper
attr title "packets passed to higher layer, sum(packetBytes)"
scalar MixedLAN.busHostB.eth.mac packetDropIncorrectlyReceived:count 0
attr interpolationmode none
attr recordingmode count
attr source packetDropReasonIsIncorrectlyReceived(packetDropped)
attr title "packet drop: incorrectly received, count"
scalar MixedLAN.busHostB.eth.mac packetDropIncorrectlyReceived:sum(packetBytes) 0
attr interpolationmode none
attr recordingmode sum(packetBytes)
attr source packetDropReasonIsIncorrectlyReceived(packetDropped)
attr title "packet drop: incorrectly received, sum(packetBytes)"
scalar MixedLAN.busHostB.eth.mac packetDropInterfaceDown:count 0
attr interpolationmode none
attr recordingmode count
attr source packetDropReasonIsInterfaceDown(packetDropped)
attr title "packet drop: interface down, count"
scalar MixedLAN.busHostB.eth.mac packetDropInterfaceDown:sum(packetBytes) 0
attr interpolationmode none
attr recordingmode sum(packetBytes)
attr source packetDropReasonIsInterfaceDown(packetDropped)
attr title "packet drop: interface down, sum(packetBytes)"
scalar MixedLAN.busHostB.eth.mac packetDropNotAddressedToUs:count 29767
attr interpolationmode none
attr recordingmode count
attr source packetDropReasonIsNotAddressedToUs(packetDropped)
attr title "packet drop: not addressed to us, count"
scalar MixedLAN.busHostB.eth.mac packetDropNotAddressedToUs:sum(packetBytes) 34085595
attr interpolationmode none
attr recordingmode sum(packetBytes)
attr source packetDropReasonIsNotAddressedToUs(packetDropped)
attr title "packet drop: not addressed to us, sum(packetBytes)"
scalar MixedLAN.busHostB.eth packetDropInterfaceDown:count 0
attr interpolationmode none
attr recordingmode count
attr source packetDropReasonIsInterfaceDown(packetDropped)
attr title "packet drops: interface down, count"
scalar MixedLAN.busHostB.eth packetDropInterfaceDown:sum(packetBytes) 0
attr interpolationmode none
attr recordingmode sum(packetBytes)
attr source packetDropReasonIsInterfaceDown(packetDropped)
attr title "packet drops: interface down, sum(packetBytes)"
scalar MixedLAN.busHostB.eth packetDropNoCarrier:count 0
attr interpolationmode none
attr recordingmode count
attr source packetDropReasonIsNoCarrier(packetDropped)
attr title "packet drops: no carrier, count"
scalar MixedLAN.busHostB.eth packetDropNoCarrier:sum(packetBytes) 0
attr interpolationmode none
attr recordingmode sum(packetBytes)
attr source packetDropReasonIsNoCarrier(packetDropped)
attr title "packet drops: no carrier, sum(packetBytes)"
scalar MixedLAN.busHostC.cli packetReceived:count 3656
attr interpolationmode none
attr recordingmode count
attr source packetReceived
attr title "packets received, count"
scalar MixedLAN.busHostC.cli packetReceived:sum(packetBytes) 4589745
attr interpolationmode none
attr recordingmode sum(packetBytes)
attr source packetReceived
attr title "packets received, sum(packetBytes)"
statistic MixedLAN.busHostC.cli endToEndDelay:histogram
field count 3656
field mean 0.0030305499079369
field stddev 0.0017716059883472
field min 6.33951e-05
field max 0.0105773151
field sum 11.079690463417
field sqrsum 0.045049093242277
attr interpolationmode none
attr recordingmode histogram
attr source dataAge(packetReceived)
attr title "end-to-end delay"
attr unit s
bin	-inf	0
bin	0	23
bin	0.0002	30
bin	0.0004	28
bin	0.0006	25
bin	0.0008	33
bin	0.001	41
bin	0.0012	959
bin	0.0014	48
bin	0.0016	31
bin	0.0018	40
bin	0.002	40
bin	0.0022	47
bin	0.0024	729
bin	0.0026	54
bin	0.0028	38
bin	0.003	53
bin	0.0032	45
bin	0.0034	45
bin	0.0036	38
bin	0.0038	465
bin	0.004	48
bin	0.0042	34
bin	0.0044	27
bin	0.0046	37
bin	0.0048	23
bin	0.005	266
bin	0.0052	40
bin	0.0054	32
bin	0.0056	30
bin	0.0058	26
bin	0.006	33
bin	0.0062	95
bin	0.0064	11
bin	0.0066	17
bin	0.0068	16
bin	0.007	8
bin	0.0072	8
bin	0.0074	40
bin	0.0076	5
bin	0.0078	7
bin	0.008	4
bin	0.0082	2
bin	0.0084	6
bin	0.0086	11
bin	0.0088	6
bin	0.009	3
bin	0.0092	2
bin	0.0094	2
bin	0.0096	1
bin	0.0098	1
bin	0.01	1
bin	0.0102	1
bin	0.0104	1
bin	0.0106	0
bin	0.0108	0
bin	0.011	0
bin	0.0112	0
bin	0.0114	0
bin	0.0116	0
bin	0.0118	0
bin	0.012	0
bin	0.0122	0
scalar MixedLAN.busHostC.cli packetSent:count 1162
attr interpolationmode none
attr recordingmode count
attr source packetSent
attr title "packets sent, count"
scalar MixedLAN.busHostC.cli packetSent:sum(packetBytes) 841841
attr interpolationmode none
attr recordingmode sum(packetBytes)
attr source packetSent
attr title "packets sent, sum(packetBytes)"
scalar MixedLAN.busHostC.srv packetReceived:count 0
attr interpolationmode none
attr recordingmode count
attr source packetReceived
attr title "packets received, count"
scalar MixedLAN.busHostC.srv packetReceived:sum(packetBytes) 0
attr interpolationmode none
attr recordingmode sum(packetBytes)
attr source packetReceived
attr title "packets received, sum(packetBytes)"
statistic MixedLAN.busHostC.srv endToEndDelay:histogram
field count 0
field mean -nan
field stddev nan
field min nan
field max nan
field sum 0
field sqrsum 0
attr interpolationmode none
attr recordingmode histogram
attr source dataAge(packetReceived)
attr title "end-to-end delay"
attr unit s
bin	-inf	0
bin	0	0
bin	1	0
scalar MixedLAN.busHostC.srv packetSent:count 0
attr interpolationmode none
attr recordingmode count
attr source packetSent
attr title "packets sent, count"
scalar MixedLAN.busHostC.srv packetSent:sum(packetBytes) 0
attr interpolationmode none
attr recordingmode sum(packetBytes)
attr source packetSent
attr title "packets sent, sum(packetBytes)"
scalar MixedLAN.busHostC.encap pauseSent:count 0
attr recordingmode count
attr title "pause sent, count"
scalar MixedLAN.busHostC.encap pauseSent:sum 0
attr recordingmode sum
attr title "pause sent, sum"
scalar MixedLAN.busHostC.encap decapPk:count 3656
attr interpolationmode none
attr recordingmode count
attr source decapPk
attr title "packets decapsulated, count"
scalar MixedLAN.busHostC.encap decapPk:sum(packetBytes) 4600713
attr interpolationmode none
attr recordingmode sum(packetBytes)
attr source decapPk
attr title "packets decapsulated, sum(packetBytes)"
scalar MixedLAN.busHostC.encap encapPk:count 1162
attr interpolationmode none
attr recordingmode count
attr source encapPk
attr title "packets encapsulated, count"
scalar MixedLAN.busHostC.encap encapPk:sum(packetBytes) 845327
attr interpolationmode none
attr recordingmode sum(packetBytes)
attr source encapPk
attr title "packets encapsulated, sum(packetBytes)"
scalar MixedLAN.busHostC.eth.queue queueLength:last 0
attr autoWarmupFilter false
attr interpolationmode sample-hold
attr recordingmode last
attr source "warmup(atomic(constant0(packetPushEnded) + count(packetPushStarted) - count(packetPulled) - count(packetRemoved) - count(packetDropped)))"
attr title "queue length, last"
attr unit pk
scalar MixedLAN.busHostC.eth.queue queueLength:max 1
attr autoWarmupFilter false
attr interpolationmode sample-hold
attr recordingmode max
attr source "warmup(atomic(constant0(packetPushEnded) + count(packetPushStarted) - count(packetPulled) - count(packetRemoved) - count(packetDropped)))"
attr title "queue length, max"
attr unit pk
scalar MixedLAN.busHostC.eth.queue queueLength:timeavg 1.4622841969167e-05
attr autoWarmupFilter false
attr interpolationmode sample-hold
attr recordingmode timeavg
attr source "warmup(atomic(constant0(packetPushEnded) + count(packetPushStarted) - count(packetPulled) - count(packetRemoved) - count(packetDropped)))"
attr title "queue length, timeavg"
attr unit pk
scalar MixedLAN.busHostC.eth.queue queueBitLength:last 0
attr autoWarmupFilter false
attr interpolationmode sample-hold
attr recordingmode last
attr source "warmup(atomic(constant0(packetPushEnded) + sum(packetLength(packetPushStarted)) - sum(packetLength(packetPulled)) - sum(packetLength(packetRemoved)) - sum(packetLength(packetDropped))))"
attr title "queue bit length, last"
attr unit b
scalar MixedLAN.busHostC.eth.queue queueBitLength:max 11136
attr autoWarmupFilter false
attr interpolationmode sample-hold
attr recordingmode max
attr source "warmup(atomic(constant0(packetPushEnded) + sum(packetLength(packetPushStarted)) - sum(packetLength(packetPulled)) - sum(packetLength(packetRemoved)) - sum(packetLength(packetDropped))))"
attr title "queue bit length, max"
attr unit b
scalar MixedLAN.busHostC.eth.queue queueBitLength:timeavg 0.084074786027853
attr autoWarmupFilter false
attr interpolationmode sample-hold
attr recordingmode timeavg
attr source "warmup(atomic(constant0(packetPushEnded) + sum(packetLength(packetPushStarted)) - sum(packetLength(packetPulled)) - sum(packetLength(packetRemoved)) - sum(packetLength(packetDropped))))"
attr title "queue bit length, timeavg"
attr unit b
statistic MixedLAN.busHostC.eth.queue queueingTime:histogram
field count 1162
field mean 1.5101041620482e-05
field stddev 0.00010474343622443
field min 0
field max 0.001126204781
field sum 0.017547410363
field sqrsum 1.3002532782892e-05
attr interpolationmode none
attr recordingmode histogram
attr source queueingTime(packetPulled)
attr title "queueing times"
attr unit s
bin	-inf	0
bin	0	1127
bin	2e-05	2
bin	4e-05	0
bin	6e-05	1
bin	8e-05	1
bin	0.0001	0
bin	0.00012	1
bin	0.00014	3
bin	0.00016	1
bin	0.00018	1
bin	0.0002	1
bin	0.00022	1
bin	0.00024	1
bin	0.00026	0
bin	0.00028	0
bin	0.0003	0
bin	0.00032	1
bin	0.00034	0
bin	0.00036	1
bin	0.00038	0
bin	0.0004	1
bin	0.00042	0
bin	0.00044	1
bin	0.00046	2
bin	0.00048	0
bin	0.0005	2
bin	0.00052	0
bin	0.00054	1
bin	0.00056	0
bin	0.00058	0
bin	0.0006	1
bin	0.00062	0
bin	0.00064	0
bin	0.00066	1
bin	0.00068	0
bin	0.0007	1
bin	0.00072	0
bin	0.00074	0
bin	0.00076	1
bin	0.00078	2
bin	0.0008	0
bin	0.00082	0
bin	0.00084	0
bin	0.00086	0
bin	0.00088	0
bin	0.0009	0
bin	0.00092	1
bin	0.00094	1
bin	0.00096	0
bin	0.00098	0
bin	0.001	0
bin	0.00102	1
bin	0.00104	0
bin	0.00106	2
bin	0.00108	0
bin	0.0011	0
bin	0.00112	2
bin	0.00114	0
bin	0.00116	0
bin	0.00118	0
bin	0.0012	0
bin	0.00122	0
bin	0.00124	0
bin	0.00126	0
bin	0.00128	0
bin	0.0013	0
bin	0.00132	0
bin	0.00134	0
bin	0.00136	0
scalar MixedLAN.busHostC.eth.queue outgoingPackets:count 1162
attr recordingmode count
attr source packetPulled
attr title "outgoing packets, count"
attr unit pk
scalar MixedLAN.busHostC.eth.queue outgoingPacketLengths:sum 6929944
attr interpolationmode none
attr recordingmode sum
attr source packetLength(packetPulled)
attr title "outgoing packet lengths, sum"
attr unit b
statistic MixedLAN.busHostC.eth.queue outgoingPacketLengths:histogram
field count 1162
field mean 5963.8072289157
field stddev 3077.8837910481
field min 568
field max 11360
field sum 6929944
field sqrsum 52327431104
attr interpolationmode none
attr recordingmode histogram
attr source packetLength(packetPulled)
attr title "outgoing packet lengths"
attr unit b
bin	-inf	0
bin	0	0
bin	200	0
bin	400	4
bin	600	20
bin	800	17
bin	1000	15
bin	1200	20
bin	1400	25
bin	1600	18
bin	1800	17
bin	2000	28
bin	2200	26
bin	2400	31
bin	2600	18
bin	2800	15
bin	3000	25
bin	3200	20
bin	3400	20
bin	3600	28
bin	3800	23
bin	4000	25
bin	4200	22
bin	4400	17
bin	4600	24
bin	4800	17
bin	5000	18
bin	5200	20
bin	5400	25
bin	5600	26
bin	5800	17
bin	6000	22
bin	6200	26
bin	6400	24
bin	6600	21
bin	6800	26
bin	7000	24
bin	7200	26
bin	7400	25
bin	7600	26
bin	7800	17
bin	8000	16
bin	8200	17
bin	8400	11
bin	8600	14
bin	8800	25
bin	9000	33
bin	9200	25
bin	9400	20
bin	9600	24
bin	9800	15
bin	10000	26
bin	10200	15
bin	10400	20
bin	10600	23
bin	10800	16
bin	11000	27
bin	11200	17
bin	11400	0
bin	11600	0
bin	11800	0
bin	12000	0
bin	12200	0
bin	12400	0
bin	12600	0
bin	12800	0
bin	13000	0
bin	13200	0
bin	13400	0
bin	13600	0
bin	13800	0
bin	14000	0
bin	14200	0
statistic MixedLAN.busHostC.eth.queue flowQueueingTime:histogram
field count 0
field mean -nan
field stddev nan
field min nan
field max nan
field sum 0
field sqrsum 0
attr interpolationmode none
attr recordingmode histogram
attr source queueingTime(demuxFlow(packetPulled))
attr title "flow queueing times"
attr unit s
bin	-inf	0
bin	0	0
bin	1	0
scalar MixedLAN.busHostC.eth.queue incomingPackets:count 1162
attr recordingmode count
attr source packetPushStarted
attr title "incoming packets, count"
attr unit pk
scalar MixedLAN.busHostC.eth.queue incomingPacketLengths:sum 6929944
attr interpolationmode none
attr recordingmode sum
attr source packetLength(packetPushStarted)
attr title "incoming packet lengths, sum"
attr unit b
statistic MixedLAN.busHostC.eth.queue incomingPacketLengths:histogram
field count 1162
field mean 5963.8072289157
field stddev 3077.8837910481
field min 568
field max 11360
field sum 6929944
field sqrsum 52327431104
attr interpolationmode none
attr recordingmode histogram
attr source packetLength(packetPushStarted)
attr title "incoming packet lengths"
attr unit b
bin	-inf	0
bin	0	0
bin	200	0
bin	400	4
bin	600	20
bin	800	17
bin	1000	15
bin	1200	20
bin	1400	25
bin	1600	18
bin	1800	17
bin	2000	28
bin	2200	26
bin	2400	31
bin	2600	18
bin	2800	15
bin	3000	25
bin	3200	20
bin	3400	20
bin	3600	28
bin	3800	23
bin	4000	25
bin	4200	22
bin	4400	17
bin	4600	24
bin	4800	17
bin	5000	18
bin	5200	20
bin	5400	25
bin	5600	26
bin	5800	17
bin	6000	22
bin	6200	26
bin	6400	24
bin	6600	21
bin	6800	26
bin	7000	24
bin	7200	26
bin	7400	25
bin	7600	26
bin	7800	17
bin	8000	16
bin	8200	17
bin	8400	11
bin	8600	14
bin	8800	25
bin	9000	33
bin	9200	25
bin	9400	20
bin	9600	24
bin	9800	15
bin	10000	26
bin	10200	15
bin	10400	20
bin	10600	23
bin	10800	16
bin	11000	27
bin	11200	17
bin	11400	0
bin	11600	0
bin	11800	0
bin	12000	0
bin	12200	0
bin	12400	0
bin	12600	0
bin	12800	0
bin	13000	0
bin	13200	0
bin	13400	0
bin	13600	0
bin	13800	0
bin	14000	0
bin	14200	0
scalar MixedLAN.busHostC.eth.queue droppedPacketsQueueOverflow:count 0
attr interpolationmode none
attr recordingmode count
attr source packetDropReasonIsQueueOverflow(packetDropped)
attr title "dropped packets: queue overflow, count"
attr unit pk
scalar MixedLAN.busHostC.eth.queue droppedPacketLengthsQueueOverflow:sum 0
attr interpolationmode none
attr recordingmode sum
attr source packetLength(packetDropReasonIsQueueOverflow(packetDropped))
attr title "dropped packet lengths: queue overflow, sum"
attr unit b
scalar MixedLAN.busHostC.eth.mac "simulated time" 1200
scalar MixedLAN.busHostC.eth.mac full-duplex 0
scalar MixedLAN.busHostC.eth.mac "frames/sec sent" 0.96833333333333
scalar MixedLAN.busHostC.eth.mac "frames/sec rcvd" 3.0466666666667
scalar MixedLAN.busHostC.eth.mac "bits/sec sent" 5774.9533333333
scalar MixedLAN.busHostC.eth.mac "bits/sec rcvd" 31115.226666667
scalar MixedLAN.busHostC.eth.mac "rx channel idle (%)" 97.336916176458
scalar MixedLAN.busHostC.eth.mac "rx channel utilization (%)" 2.6629673333333
scalar MixedLAN.busHostC.eth.mac "rx channel collision (%)" 0.00011649020833333
scalar MixedLAN.busHostC.eth.mac collisions 416
scalar MixedLAN.busHostC.eth.mac backoffs 67
scalar MixedLAN.busHostC.eth.mac backoffSlotsGenerated:count 67
attr interpolationmode none
attr recordingmode count
attr title "backoff, count"
scalar MixedLAN.busHostC.eth.mac collision:count 416
attr interpolationmode none
attr recordingmode count
attr title "collision, count"
scalar MixedLAN.busHostC.eth.mac rxPausePkUnits:count 0
attr interpolationmode none
attr recordingmode count
attr title "pause units received, count"
scalar MixedLAN.busHostC.eth.mac rxPausePkUnits:sum 0
attr interpolationmode none
attr recordingmode sum
attr title "pause units received, sum"
scalar MixedLAN.busHostC.eth.mac txPausePkUnits:count 0
attr interpolationmode none
attr recordingmode count
attr title "pause units sent, count"
scalar MixedLAN.busHostC.eth.mac txPausePkUnits:sum 0
attr interpolationmode none
attr recordingmode sum
attr title "pause units sent, sum"
scalar MixedLAN.busHostC.eth.mac rxPkOk:count 3656
attr interpolationmode none
attr recordingmode count
attr source rxPkOk
attr title "packets received OK, count"
scalar MixedLAN.busHostC.eth.mac rxPkOk:sum(packetBytes) 4667284
attr interpolationmode none
attr recordingmode sum(packetBytes)
attr source rxPkOk
attr title "packets received OK, sum(packetBytes)"
scalar MixedLAN.busHostC.eth.mac txPk:count 1162
attr interpolationmode none
attr recordingmode count
attr source packetSentToLower
attr title "packets transmitted, count"
scalar MixedLAN.busHostC.eth.mac txPk:sum(packetBytes) 866243
attr interpolationmode none
attr recordingmode sum(packetBytes)
attr source packetSentToLower
attr title "packets transmitted, sum(packetBytes)"
scalar MixedLAN.busHostC.eth.mac packetReceivedFromUpper:count 1162
attr interpolationmode none
attr recordingmode count
attr source packetReceivedFromUpper
attr title "packet bytes from higher layer, count"
scalar MixedLAN.busHostC.eth.mac packetReceivedFromUpper:sum(packetBytes) 866243
attr interpolationmode none
attr recordingmode sum(packetBytes)
attr source packetReceivedFromUpper
attr title "packet bytes from higher layer, sum(packetBytes)"
scalar MixedLAN.busHostC.eth.mac passedUpPk:count 3656
attr interpolationmode none
attr recordingmode count
attr source packetSentToUpper
attr title "packets passed to higher layer, count"
scalar MixedLAN.busHostC.eth.mac passedUpPk:sum(packetBytes) 4667284
attr interpolationmode none
attr recordingmode sum(packetBytes)
attr source packetSentToUpper
attr title "packets passed to higher layer, sum(packetBytes)"
scalar MixedLAN.busHostC.eth.mac packetDropIncorrectlyReceived:count 0
attr interpolationmode none
attr recordingmode count
attr source packetDropReasonIsIncorrectlyReceived(packetDropped)
attr title "packet drop: incorrectly received, count"
scalar MixedLAN.busHostC.eth.mac packetDropIncorrectlyReceived:sum(packetBytes) 0
attr interpolationmode none
attr recordingmode sum(packetBytes)
attr source packetDropReasonIsIncorrectlyReceived(packetDropped)
attr title "packet drop: incorrectly received, sum(packetBytes)"
scalar MixedLAN.busHostC.eth.mac packetDropInterfaceDown:count 0
attr interpolationmode none
attr recordingmode count
attr source packetDropReasonIsInterfaceDown(packetDropped)
attr title "packet drop: interface down, count"
scalar MixedLAN.busHostC.eth.mac packetDropInterfaceDown:sum(packetBytes) 0
attr interpolationmode none
attr recordingmode sum(packetBytes)
attr source packetDropReasonIsInterfaceDown(packetDropped)
attr title "packet drop: interface down, sum(packetBytes)"
scalar MixedLAN.busHostC.eth.mac packetDropNotAddressedToUs:count 29864
attr interpolationmode none
attr recordingmode count
attr source packetDropReasonIsNotAddressedToUs(packetDropped)
attr title "packet drop: not addressed to us, count"
scalar MixedLAN.busHostC.eth.mac packetDropNotAddressedToUs:sum(packetBytes) 34133527
attr interpolationmode none
attr recordingmode sum(packetBytes)
attr source packetDropReasonIsNotAddressedToUs(packetDropped)
attr title "packet drop: not addressed to us, sum(packetBytes)"
scalar MixedLAN.busHostC.eth packetDropInterfaceDown:count 0
attr interpolationmode none
attr recordingmode count
attr source packetDropReasonIsInterfaceDown(packetDropped)
attr title "packet drops: interface down, count"
scalar MixedLAN.busHostC.eth packetDropInterfaceDown:sum(packetBytes) 0
attr interpolationmode none
attr recordingmode sum(packetBytes)
attr source packetDropReasonIsInterfaceDown(packetDropped)
attr title "packet drops: interface down, sum(packetBytes)"
scalar MixedLAN.busHostC.eth packetDropNoCarrier:count 0
attr interpolationmode none
attr recordingmode count
attr source packetDropReasonIsNoCarrier(packetDropped)
attr title "packet drops: no carrier, count"
scalar MixedLAN.busHostC.eth packetDropNoCarrier:sum(packetBytes) 0
attr interpolationmode none
attr recordingmode sum(packetBytes)
attr source packetDropReasonIsNoCarrier(packetDropped)
attr title "packet drops: no carrier, sum(packetBytes)"
scalar MixedLAN.busHostD.cli packetReceived:count 4139
attr interpolationmode none
attr recordingmode count
attr source packetReceived
attr title "packets received, count"
scalar MixedLAN.busHostD.cli packetReceived:sum(packetBytes) 5204698
attr interpolationmode none
attr recordingmode sum(packetBytes)
attr source packetReceived
attr title "packets received, sum(packetBytes)"
statistic MixedLAN.busHostD.cli endToEndDelay:histogram
field count 4139
field mean 0.0030504602304436
field stddev 0.0017996261707803
field min 6.34901e-05
field max 0.0142221001
field sum 12.625854893806
field sqrsum 0.051916219948066
attr interpolationmode none
attr recordingmode histogram
attr source dataAge(packetReceived)
attr title "end-to-end delay"
attr unit s
bin	-inf	0
bin	0	21
bin	0.0002	27
bin	0.0004	35
bin	0.0006	38
bin	0.0008	27
bin	0.001	25
bin	0.0012	1096
bin	0.0014	55
bin	0.0016	49
bin	0.0018	51
bin	0.002	46
bin	0.0022	47
bin	0.0024	831
bin	0.0026	59
bin	0.0028	49
bin	0.003	43
bin	0.0032	46
bin	0.0034	54
bin	0.0036	58
bin	0.0038	531
bin	0.004	51
bin	0.0042	38
bin	0.0044	44
bin	0.0046	29
bin	0.0048	33
bin	0.005	291
bin	0.0052	25
bin	0.0054	32
bin	0.0056	32
bin	0.0058	21
bin	0.006	23
bin	0.0062	146
bin	0.0064	28
bin	0.0066	17
bin	0.0068	18
bin	0.007	11
bin	0.0072	9
bin	0.0074	40
bin	0.0076	9
bin	0.0078	6
bin	0.008	6
bin	0.0082	2
bin	0.0084	3
bin	0.0086	12
bin	0.0088	3
bin	0.009	6
bin	0.0092	3
bin	0.0094	0
bin	0.0096	3
bin	0.0098	1
bin	0.01	2
bin	0.0102	1
bin	0.0104	0
bin	0.0106	1
bin	0.0108	1
bin	0.011	0
bin	0.0112	0
bin	0.0114	0
bin	0.0116	0
bin	0.0118	1
bin	0.012	1
bin	0.0122	0
bin	0.0124	0
bin	0.0126	0
bin	0.0128	0
bin	0.013	1
bin	0.0132	0
bin	0.0134	0
bin	0.0136	0
bin	0.0138	0
bin	0.014	0
bin	0.0142	1
bin	0.0144	0
scalar MixedLAN.busHostD.cli packetSent:count 1292
attr interpolationmode none
attr recordingmode count
attr source packetSent
attr title "packets sent, count"
scalar MixedLAN.busHostD.cli packetSent:sum(packetBytes) 915200
attr interpolationmode none
attr recordingmode sum(packetBytes)
attr source packetSent
attr title "packets sent, sum(packetBytes)"
scalar MixedLAN.busHostD.srv packetReceived:count 0
attr interpolationmode none
attr recordingmode count
attr source packetReceived
attr title "packets received, count"
scalar MixedLAN.busHostD.srv packetReceived:sum(packetBytes) 0
attr interpolationmode none
attr recordingmode sum(packetBytes)
attr source packetReceived
attr title "packets received, sum(packetBytes)"
statistic MixedLAN.busHostD.srv endToEndDelay:histogram
field count 0
field mean -nan
field stddev nan
field min nan
field max nan
field sum 0
field sqrsum 0
attr interpolationmode none
attr recordingmode histogram
attr source dataAge(packetReceived)
attr title "end-to-end delay"
attr unit s
bin	-inf	0
bin	0	0
bin	1	0
scalar MixedLAN.busHostD.srv packetSent:count 0
attr interpolationmode none
attr recordingmode count
attr source packetSent
attr title "packets sent, count"
scalar MixedLAN.busHostD.srv packetSent:sum(packetBytes) 0
attr interpolationmode none
attr recordingmode sum(packetBytes)
attr source packetSent
attr title "packets sent, sum(packetBytes)"
scalar MixedLAN.busHostD.encap pauseSent:count 0
attr recordingmode count
attr title "pause sent, count"
scalar MixedLAN.busHostD.encap pauseSent:sum 0
attr recordingmode sum
attr title "pause sent, sum"
scalar MixedLAN.busHostD.encap decapPk:count 4139
attr interpolationmode none
attr recordingmode count
attr source decapPk
attr title "packets decapsulated, count"
scalar MixedLAN.busHostD.encap decapPk:sum(packetBytes) 5217115
attr interpolationmode none
attr recordingmode sum(packetBytes)
attr source decapPk
attr title "packets decapsulated, sum(packetBytes)"
scalar MixedLAN.busHostD.encap encapPk:count 1292
attr interpolationmode none
attr recordingmode count
attr source encapPk
attr title "packets encapsulated, count"
scalar MixedLAN.busHostD.encap encapPk:sum(packetBytes) 919076
attr interpolationmode none
attr recordingmode sum(packetBytes)
attr source encapPk
attr title "packets encapsulated, sum(packetBytes)"
scalar MixedLAN.busHostD.eth.queue queueLength:last 0
attr autoWarmupFilter false
attr interpolationmode sample-hold
attr recordingmode last
attr source "warmup(atomic(constant0(packetPushEnded) + count(packetPushStarted) - count(packetPulled) - count(packetRemoved) - count(packetDropped)))"
attr title "queue length, last"
attr unit pk
scalar MixedLAN.busHostD.eth.queue queueLength:max 1
attr autoWarmupFilter false
attr interpolationmode sample-hold
attr recordingmode max
attr source "warmup(atomic(constant0(packetPushEnded) + count(packetPushStarted) - count(packetPulled) - count(packetRemoved) - count(packetDropped)))"
attr title "queue length, max"
attr unit pk
scalar MixedLAN.busHostD.eth.queue queueLength:timeavg 1.09015787475e-05
attr autoWarmupFilter false
attr interpolationmode sample-hold
attr recordingmode timeavg
attr source "warmup(atomic(constant0(packetPushEnded) + count(packetPushStarted) - count(packetPulled) - count(packetRemoved) - count(packetDropped)))"
attr title "queue length, timeavg"
attr unit pk
scalar MixedLAN.busHostD.eth.queue queueBitLength:last 0
attr autoWarmupFilter false
attr interpolationmode sample-hold
attr recordingmode last
attr source "warmup(atomic(constant0(packetPushEnded) + sum(packetLength(packetPushStarted)) - sum(packetLength(packetPulled)) - sum(packetLength(packetRemoved)) - sum(packetLength(packetDropped))))"
attr title "queue bit length, last"
attr unit b
scalar MixedLAN.busHostD.eth.queue queueBitLength:max 10608
attr autoWarmupFilter false
attr interpolationmode sample-hold
attr recordingmode max
attr source "warmup(atomic(constant0(packetPushEnded) + sum(packetLength(packetPushStarted)) - sum(packetLength(packetPulled)) - sum(packetLength(packetRemoved)) - sum(packetLength(packetDropped))))"
attr title "queue bit length, max"
attr unit b
scalar MixedLAN.busHostD.eth.queue queueBitLength:timeavg 0.06402014366968
attr autoWarmupFilter false
attr interpolationmode sample-hold
attr recordingmode timeavg
attr source "warmup(atomic(constant0(packetPushEnded) + sum(packetLength(packetPushStarted)) - sum(packetLength(packetPulled)) - sum(packetLength(packetRemoved)) - sum(packetLength(packetDropped))))"
attr title "queue bit length, timeavg"
attr unit b
statistic MixedLAN.busHostD.eth.queue queueingTime:histogram
field count 1292
field mean 1.0125305338235e-05
field stddev 8.2554777803868e-05
field min 0
field max 0.001113852293
field sum 0.013081894497
field sqrsum 8.9309992938603e-06
attr interpolationmode none
attr recordingmode histogram
attr source queueingTime(packetPulled)
attr title "queueing times"
attr unit s
bin	-inf	0
bin	0	1267
bin	2e-05	0
bin	4e-05	0
bin	6e-05	0
bin	8e-05	1
bin	0.0001	0
bin	0.00012	0
bin	0.00014	1
bin	0.00016	1
bin	0.00018	2
bin	0.0002	0
bin	0.00022	0
bin	0.00024	0
bin	0.00026	1
bin	0.00028	0
bin	0.0003	1
bin	0.00032	2
bin	0.00034	2
bin	0.00036	0
bin	0.00038	0
bin	0.0004	2
bin	0.00042	0
bin	0.00044	0
bin	0.00046	0
bin	0.00048	0
bin	0.0005	0
bin	0.00052	0
bin	0.00054	1
bin	0.00056	0
bin	0.00058	1
bin	0.0006	0
bin	0.00062	1
bin	0.00064	2
bin	0.00066	0
bin	0.00068	0
bin	0.0007	0
bin	0.00072	0
bin	0.00074	0
bin	0.00076	1
bin	0.00078	0
bin	0.0008	0
bin	0.00082	0
bin	0.00084	1
bin	0.00086	0
bin	0.00088	1
bin	0.0009	2
bin	0.00092	0
bin	0.00094	0
bin	0.00096	1
bin	0.00098	0
bin	0.001	0
bin	0.00102	0
bin	0.00104	0
bin	0.00106	0
bin	0.00108	0
bin	0.0011	1
bin	0.00112	0
bin	0.00114	0
bin	0.00116	0
bin	0.00118	0
bin	0.0012	0
bin	0.00122	0
scalar MixedLAN.busHostD.eth.queue outgoingPackets:count 1292
attr recordingmode count
attr source packetPulled
attr title "outgoing packets, count"
attr unit pk
scalar MixedLAN.busHostD.eth.queue outgoingPacketLengths:sum 7538656
attr interpolationmode none
attr recordingmode sum
attr source packetLength(packetPulled)
attr title "outgoing packet lengths, sum"
attr unit b
statistic MixedLAN.busHostD.eth.queue outgoingPacketLengths:histogram
field count 1292
field mean 5834.8730650155
field stddev 3195.3910213591
field min 568
field max 11368
field sum 7538656
field sqrsum 57168887040
attr interpolationmode none
attr recordingmode histogram
attr source packetLength(packetPulled)
attr title "outgoing packet lengths"
attr unit b
bin	-inf	0
bin	0	0
bin	200	0
bin	400	3
bin	600	18
bin	800	26
bin	1000	27
bin	1200	40
bin	1400	23
bin	1600	24
bin	1800	30
bin	2000	37
bin	2200	22
bin	2400	19
bin	2600	19
bin	2800	26
bin	3000	32
bin	3200	22
bin	3400	32
bin	3600	21
bin	3800	30
bin	4000	26
bin	4200	22
bin	4400	24
bin	4600	28
bin	4800	30
bin	5000	17
bin	5200	18
bin	5400	24
bin	5600	22
bin	5800	13
bin	6000	22
bin	6200	25
bin	6400	22
bin	6600	21
bin	6800	24
bin	7000	21
bin	7200	18
bin	7400	21
bin	7600	19
bin	7800	25
bin	8000	28
bin	8200	21
bin	8400	21
bin	8600	25
bin	8800	13
bin	9000	22
bin	9200	21
bin	9400	27
bin	9600	24
bin	9800	34
bin	10000	12
bin	10200	28
bin	10400	26
bin	10600	24
bin	10800	19
bin	11000	30
bin	11200	24
bin	11400	0
bin	11600	0
bin	11800	0
bin	12000	0
bin	12200	0
bin	12400	0
bin	12600	0
bin	12800	0
bin	13000	0
bin	13200	0
bin	13400	0
bin	13600	0
bin	13800	0
bin	14000	0
bin	14200	0
statistic MixedLAN.busHostD.eth.queue flowQueueingTime:histogram
field count 0
field mean -nan
field stddev nan
field min nan
field max nan
field sum 0
field sqrsum 0
attr interpolationmode none
attr recordingmode histogram
attr source queueingTime(demuxFlow(packetPulled))
attr title "flow queueing times"
attr unit s
bin	-inf	0
bin	0	0
bin	1	0
scalar MixedLAN.busHostD.eth.queue incomingPackets:count 1292
attr recordingmode count
attr source packetPushStarted
attr title "incoming packets, count"
attr unit pk
scalar MixedLAN.busHostD.eth.queue incomingPacketLengths:sum 7538656
attr interpolationmode none
attr recordingmode sum
attr source packetLength(packetPushStarted)
attr title "incoming packet lengths, sum"
attr unit b
statistic MixedLAN.busHostD.eth.queue incomingPacketLengths:histogram
field count 1292
field mean 5834.8730650155
field stddev 3195.3910213591
field min 568
field max 11368
field sum 7538656
field sqrsum 57168887040
attr interpolationmode none
attr recordingmode histogram
attr source packetLength(packetPushStarted)
attr title "incoming packet lengths"
attr unit b
bin	-inf	0
bin	0	0
bin	200	0
bin	400	3
bin	600	18
bin	800	26
bin	1000	27
bin	1200	40
bin	1400	23
bin	1600	24
bin	1800	30
bin	2000	37
bin	2200	22
bin	2400	19
bin	2600	19
bin	2800	26
bin	3000	32
bin	3200	22
bin	3400	32
bin	3600	21
bin	3800	30
bin	4000	26
bin	4200	22
bin	4400	24
bin	4600	28
bin	4800	30
bin	5000	17
bin	5200	18
bin	5400	24
bin	5600	22
bin	5800	13
bin	6000	22
bin	6200	25
bin	6400	22
bin	6600	21
bin	6800	24
bin	7000	21
bin	7200	18
bin	7400	21
bin	7600	19
bin	7800	25
bin	8000	28
bin	8200	21
bin	8400	21
bin	8600	25
bin	8800	13
bin	9000	22
bin	9200	21
bin	9400	27
bin	9600	24
bin	9800	34
bin	10000	12
bin	10200	28
bin	10400	26
bin	10600	24
bin	10800	19
bin	11000	30
bin	11200	24
bin	11400	0
bin	11600	0
bin	11800	0
bin	12000	0
bin	12200	0
bin	12400	0
bin	12600	0
bin	12800	0
bin	13000	0
bin	13200	0
bin	13400	0
bin	13600	0
bin	13800	0
bin	14000	0
bin	14200	0
scalar MixedLAN.busHostD.eth.queue droppedPacketsQueueOverflow:count 0
attr interpolationmode none
attr recordingmode count
attr source packetDropReasonIsQueueOverflow(packetDropped)
attr title "dropped packets: queue overflow, count"
attr unit pk
scalar MixedLAN.busHostD.eth.queue droppedPacketLengthsQueueOverflow:sum 0
attr interpolationmode none
attr recordingmode sum
attr source packetLength(packetDropReasonIsQueueOverflow(packetDropped))
attr title "dropped packet lengths: queue overflow, sum"
attr unit b
scalar MixedLAN.busHostD.eth.mac "simulated time" 1200
scalar MixedLAN.busHostD.eth.mac full-duplex 0
scalar MixedLAN.busHostD.eth.mac "frames/sec sent" 1.0766666666667
scalar MixedLAN.busHostD.eth.mac "frames/sec rcvd" 3.4491666666667
scalar MixedLAN.busHostD.eth.mac "bits/sec sent" 6282.2133333333
scalar MixedLAN.busHostD.eth.mac "bits/sec rcvd" 35284.506666667
scalar MixedLAN.busHostD.eth.mac "rx channel idle (%)" 97.336916178083
scalar MixedLAN.busHostD.eth.mac "rx channel utilization (%)" 2.6629673333333
scalar MixedLAN.busHostD.eth.mac "rx channel collision (%)" 0.00011648858333333
scalar MixedLAN.busHostD.eth.mac collisions 416
scalar MixedLAN.busHostD.eth.mac backoffs 44
scalar MixedLAN.busHostD.eth.mac backoffSlotsGenerated:count 44
attr interpolationmode none
attr recordingmode count
attr title "backoff, count"
scalar MixedLAN.busHostD.eth.mac collision:count 416
attr interpolationmode none
attr recordingmode count
attr title "collision, count"
scalar MixedLAN.busHostD.eth.mac rxPausePkUnits:count 0
attr interpolationmode none
attr recordingmode count
attr title "pause units received, count"
scalar MixedLAN.busHostD.eth.mac rxPausePkUnits:sum 0
attr interpolationmode none
attr recordingmode sum
attr title "pause units received, sum"
scalar MixedLAN.busHostD.eth.mac txPausePkUnits:count 0
attr interpolationmode none
attr recordingmode count
attr title "pause units sent, count"
scalar MixedLAN.busHostD.eth.mac txPausePkUnits:sum 0
attr interpolationmode none
attr recordingmode sum
attr title "pause units sent, sum"
scalar MixedLAN.busHostD.eth.mac rxPkOk:count 4139
attr interpolationmode none
attr recordingmode count
attr source rxPkOk
attr title "packets received OK, count"
scalar MixedLAN.busHostD.eth.mac rxPkOk:sum(packetBytes) 5292676
attr interpolationmode none
attr recordingmode sum(packetBytes)
attr source rxPkOk
attr title "packets received OK, sum(packetBytes)"
scalar MixedLAN.busHostD.eth.mac txPk:count 1292
attr interpolationmode none
attr recordingmode count
attr source packetSentToLower
attr title "packets transmitted, count"
scalar MixedLAN.busHostD.eth.mac txPk:sum(packetBytes) 942332
attr interpolationmode none
attr recordingmode sum(packetBytes)
attr source packetSentToLower
attr title "packets transmitted, sum(packetBytes)"
scalar MixedLAN.busHostD.eth.mac packetReceivedFromUpper:count 1292
attr interpolationmode none
attr recordingmode count
attr source packetReceivedFromUpper
attr title "packet bytes from higher layer, count"
scalar MixedLAN.busHostD.eth.mac packetReceivedFromUpper:sum(packetBytes) 942332
attr interpolationmode none
attr recordingmode sum(packetBytes)
attr source packetReceivedFromUpper
attr title "packet bytes from higher layer, sum(packetBytes)"
scalar MixedLAN.busHostD.eth.mac passedUpPk:count 4139
attr interpolationmode none
attr recordingmode count
attr source packetSentToUpper
attr title "packets passed to higher layer, count"
scalar MixedLAN.busHostD.eth.mac passedUpPk:sum(packetBytes) 5292676
attr interpolationmode none
attr recordingmode sum(packetBytes)
attr source packetSentToUpper
attr title "packets passed to higher layer, sum(packetBytes)"
scalar MixedLAN.busHostD.eth.mac packetDropIncorrectlyReceived:count 0
attr interpolationmode none
attr recordingmode count
attr source packetDropReasonIsIncorrectlyReceived(packetDropped)
attr title "packet drop: incorrectly received, count"
scalar MixedLAN.busHostD.eth.mac packetDropIncorrectlyReceived:sum(packetBytes) 0
attr interpolationmode none
attr recordingmode sum(packetBytes)
attr source packetDropReasonIsIncorrectlyReceived(packetDropped)
attr title "packet drop: incorrectly received, sum(packetBytes)"
scalar MixedLAN.busHostD.eth.mac packetDropInterfaceDown:count 0
attr interpolationmode none
attr recordingmode count
attr source packetDropReasonIsInterfaceDown(packetDropped)
attr title "packet drop: interface down, count"
scalar MixedLAN.busHostD.eth.mac packetDropInterfaceDown:sum(packetBytes) 0
attr interpolationmode none
attr recordingmode sum(packetBytes)
attr source packetDropReasonIsInterfaceDown(packetDropped)
attr title "packet drop: interface down, sum(packetBytes)"
scalar MixedLAN.busHostD.eth.mac packetDropNotAddressedToUs:count 29251
attr interpolationmode none
attr recordingmode count
attr source packetDropReasonIsNotAddressedToUs(packetDropped)
attr title "packet drop: not addressed to us, count"
scalar MixedLAN.busHostD.eth.mac packetDropNotAddressedToUs:sum(packetBytes) 33432046
attr interpolationmode none
attr recordingmode sum(packetBytes)
attr source packetDropReasonIsNotAddressedToUs(packetDropped)
attr title "packet drop: not addressed to us, sum(packetBytes)"
scalar MixedLAN.busHostD.eth packetDropInterfaceDown:count 0
attr interpolationmode none
attr recordingmode count
attr source packetDropReasonIsInterfaceDown(packetDropped)
attr title "packet drops: interface down, count"
scalar MixedLAN.busHostD.eth packetDropInterfaceDown:sum(packetBytes) 0
attr interpolationmode none
attr recordingmode sum(packetBytes)
attr source packetDropReasonIsInterfaceDown(packetDropped)
attr title "packet drops: interface down, sum(packetBytes)"
scalar MixedLAN.busHostD.eth packetDropNoCarrier:count 0
attr interpolationmode none
attr recordingmode count
attr source packetDropReasonIsNoCarrier(packetDropped)
attr title "packet drops: no carrier, count"
scalar MixedLAN.busHostD.eth packetDropNoCarrier:sum(packetBytes) 0
attr interpolationmode none
attr recordingmode sum(packetBytes)
attr source packetDropReasonIsNoCarrier(packetDropped)
attr title "packet drops: no carrier, sum(packetBytes)"
scalar MixedLAN.switchHostA.cli packetReceived:count 0
attr interpolationmode none
attr recordingmode count
attr source packetReceived
attr title "packets received, count"
scalar MixedLAN.switchHostA.cli packetReceived:sum(packetBytes) 0
attr interpolationmode none
attr recordingmode sum(packetBytes)
attr source packetReceived
attr title "packets received, sum(packetBytes)"
statistic MixedLAN.switchHostA.cli endToEndDelay:histogram
field count 0
field mean -nan
field stddev nan
field min nan
field max nan
field sum 0
field sqrsum 0
attr interpolationmode none
attr recordingmode histogram
attr source dataAge(packetReceived)
attr title "end-to-end delay"
attr unit s
bin	-inf	0
bin	0	0
bin	1	0
scalar MixedLAN.switchHostA.cli packetSent:count 0
attr interpolationmode none
attr recordingmode count
attr source packetSent
attr title "packets sent, count"
scalar MixedLAN.switchHostA.cli packetSent:sum(packetBytes) 0
attr interpolationmode none
attr recordingmode sum(packetBytes)
attr source packetSent
attr title "packets sent, sum(packetBytes)"
scalar MixedLAN.switchHostA.srv packetReceived:count 12041
attr interpolationmode none
attr recordingmode count
attr source packetReceived
attr title "packets received, count"
scalar MixedLAN.switchHostA.srv packetReceived:sum(packetBytes) 8708266
attr interpolationmode none
attr recordingmode sum(packetBytes)
attr source packetReceived
attr title "packets received, sum(packetBytes)"
statistic MixedLAN.switchHostA.srv endToEndDelay:histogram
field count 12041
field mean 0.00058369463129084
field stddev 0.00051919915356335
field min 1.268e-05
field max 0.014117480881
field sum 7.028267055373
field sqrsum 0.0073479575906727
attr interpolationmode none
attr recordingmode histogram
attr source dataAge(packetReceived)
attr title "end-to-end delay"
attr unit s
bin	-inf	0
bin	0	3121
bin	0.0002	1940
bin	0.0004	1550
bin	0.0006	1618
bin	0.0008	1566
bin	0.001	1627
bin	0.0012	488
bin	0.0014	23
bin	0.0016	15
bin	0.0018	11
bin	0.002	11
bin	0.0022	4
bin	0.0024	12
bin	0.0026	4
bin	0.0028	4
bin	0.003	7
bin	0.0032	2
bin	0.0034	4
bin	0.0036	3
bin	0.0038	1
bin	0.004	1
bin	0.0042	3
bin	0.0044	2
bin	0.0046	2
bin	0.0048	1
bin	0.005	2
bin	0.0052	4
bin	0.0054	0
bin	0.0056	3
bin	0.0058	1
bin	0.006	0
bin	0.0062	0
bin	0.0064	1
bin	0.0066	1
bin	0.0068	1
bin	0.007	0
bin	0.0072	2
bin	0.0074	0
bin	0.0076	0
bin	0.0078	0
bin	0.008	0
bin	0.0082	0
bin	0.0084	0
bin	0.0086	1
bin	0.0088	0
bin	0.009	1
bin	0.0092	1
bin	0.0094	0
bin	0.0096	0
bin	0.0098	0
bin	0.01	0
bin	0.0102	0
bin	0.0104	0
bin	0.0106	0
bin	0.0108	0
bin	0.011	0
bin	0.0112	0
bin	0.0114	2
bin	0.0116	0
bin	0.0118	0
bin	0.012	0
bin	0.0122	0
bin	0.0124	0
bin	0.0126	0
bin	0.0128	0
bin	0.013	0
bin	0.0132	0
bin	0.0134	0
bin	0.0136	0
bin	0.0138	0
bin	0.014	1
bin	0.0142	0
scalar MixedLAN.switchHostA.srv packetSent:count 37328
attr interpolationmode none
attr recordingmode count
attr source packetSent
attr title "packets sent, count"
scalar MixedLAN.switchHostA.srv packetSent:sum(packetBytes) 46653790
attr interpolationmode none
attr recordingmode sum(packetBytes)
attr source packetSent
attr title "packets sent, sum(packetBytes)"
scalar MixedLAN.switchHostA.encap pauseSent:count 0
attr recordingmode count
attr title "pause sent, count"
scalar MixedLAN.switchHostA.encap pauseSent:sum 0
attr recordingmode sum
attr title "pause sent, sum"
scalar MixedLAN.switchHostA.encap decapPk:count 12041
attr interpolationmode none
attr recordingmode count
attr source decapPk
attr title "packets decapsulated, count"
scalar MixedLAN.switchHostA.encap decapPk:sum(packetBytes) 8744389
attr interpolationmode none
attr recordingmode sum(packetBytes)
attr source decapPk
attr title "packets decapsulated, sum(packetBytes)"
scalar MixedLAN.switchHostA.encap encapPk:count 37328
attr interpolationmode none
attr recordingmode count
attr source encapPk
attr title "packets encapsulated, count"
scalar MixedLAN.switchHostA.encap encapPk:sum(packetBytes) 46765774
attr interpolationmode none
attr recordingmode sum(packetBytes)
attr source encapPk
attr title "packets encapsulated, sum(packetBytes)"
scalar MixedLAN.switchHostA.eth.queue queueLength:last 0
attr autoWarmupFilter false
attr interpolationmode sample-hold
attr recordingmode last
attr source "warmup(atomic(constant0(packetPushEnded) + count(packetPushStarted) - count(packetPulled) - count(packetRemoved) - count(packetDropped)))"
attr title "queue length, last"
attr unit pk
scalar MixedLAN.switchHostA.eth.queue queueLength:max 10
attr autoWarmupFilter false
attr interpolationmode sample-hold
attr recordingmode max
attr source "warmup(atomic(constant0(packetPushEnded) + count(packetPushStarted) - count(packetPulled) - count(packetRemoved) - count(packetDropped)))"
attr title "queue length, max"
attr unit pk
scalar MixedLAN.switchHostA.eth.queue queueLength:timeavg 0.0055807720490497
attr autoWarmupFilter false
attr interpolationmode sample-hold
attr recordingmode timeavg
attr source "warmup(atomic(constant0(packetPushEnded) + count(packetPushStarted) - count(packetPulled) - count(packetRemoved) - count(packetDropped)))"
attr title "queue length, timeavg"
attr unit pk
scalar MixedLAN.switchHostA.eth.queue queueBitLength:last 0
attr autoWarmupFilter false
attr interpolationmode sample-hold
attr recordingmode last
attr source "warmup(atomic(constant0(packetPushEnded) + sum(packetLength(packetPushStarted)) - sum(packetLength(packetPulled)) - sum(packetLength(packetRemoved)) - sum(packetLength(packetDropped))))"
attr title "queue bit length, last"
attr unit b
scalar MixedLAN.switchHostA.eth.queue queueBitLength:max 109024
attr autoWarmupFilter false
attr interpolationmode sample-hold
attr recordingmode max
attr source "warmup(atomic(constant0(packetPushEnded) + sum(packetLength(packetPushStarted)) - sum(packetLength(packetPulled)) - sum(packetLength(packetRemoved)) - sum(packetLength(packetDropped))))"
attr title "queue bit length, max"
attr unit b
scalar MixedLAN.switchHostA.eth.queue queueBitLength:timeavg 51.090891762409
attr autoWarmupFilter false
attr interpolationmode sample-hold
attr recordingmode timeavg
attr source "warmup(atomic(constant0(packetPushEnded) + sum(packetLength(packetPushStarted)) - sum(packetLength(packetPulled)) - sum(packetLength(packetRemoved)) - sum(packetLength(packetDropped))))"
attr title "queue bit length, timeavg"
attr unit b
statistic MixedLAN.switchHostA.eth.queue queueingTime:histogram
field count 37328
field mean 0.00017940758837494
field stddev 0.00017698213903324
field min 0
field max 0.001156024275
field sum 6.6969264588597
field sqrsum 0.0023706610099237
attr interpolationmode none
attr recordingmode histogram
attr source queueingTime(packetPulled)
attr title "queueing times"
attr unit s
bin	-inf	0
bin	0	12002
bin	2e-05	2
bin	4e-05	2
bin	6e-05	2
bin	8e-05	1
bin	0.0001	6
bin	0.00012	9956
bin	0.00014	4
bin	0.00016	4
bin	0.00018	3
bin	0.0002	1
bin	0.00022	5
bin	0.00024	7171
bin	0.00026	6
bin	0.00028	4
bin	0.0003	3
bin	0.00032	2
bin	0.00034	2
bin	0.00036	4461
bin	0.00038	3
bin	0.0004	3
bin	0.00042	2
bin	0.00044	2
bin	0.00046	3
bin	0.00048	2307
bin	0.0005	3
bin	0.00052	1
bin	0.00054	2
bin	0.00056	3
bin	0.00058	2
bin	0.0006	939
bin	0.00062	1
bin	0.00064	0
bin	0.00066	1
bin	0.00068	2
bin	0.0007	1
bin	0.00072	311
bin	0.00074	0
bin	0.00076	0
bin	0.00078	1
bin	0.0008	1
bin	0.00082	1
bin	0.00084	2
bin	0.00086	77
bin	0.00088	0
bin	0.0009	1
bin	0.00092	0
bin	0.00094	1
bin	0.00096	0
bin	0.00098	16
bin	0.001	0
bin	0.00102	1
bin	0.00104	0
bin	0.00106	0
bin	0.00108	0
bin	0.0011	3
bin	0.00112	0
bin	0.00114	1
bin	0.00116	0
scalar MixedLAN.switchHostA.eth.queue outgoingPackets:count 37328
attr recordingmode count
attr source packetPulled
attr title "outgoing packets, count"
attr unit pk
scalar MixedLAN.switchHostA.eth.queue outgoingPacketLengths:sum 379501424
attr interpolationmode none
attr recordingmode sum
attr source packetLength(packetPulled)
attr title "outgoing packet lengths, sum"
attr unit b
statistic MixedLAN.switchHostA.eth.queue outgoingPacketLengths:histogram
field count 37328
field mean 10166.669095585
field stddev 3471.5410401535
field min 176
field max 12144
field sum 379501424
field sqrsum 4308115367552
attr interpolationmode none
attr recordingmode histogram
attr source packetLength(packetPulled)
attr title "outgoing packet lengths"
attr unit b
bin	-inf	0
bin	0	37
bin	200	227
bin	400	214
bin	600	212
bin	800	211
bin	1000	228
bin	1200	177
bin	1400	218
bin	1600	226
bin	1800	202
[...]
scalar MixedLAN.hubHostB.eth.mac packetDropIncorrectlyReceived:count 0
attr interpolationmode none
attr recordingmode count
attr source packetDropReasonIsIncorrectlyReceived(packetDropped)
attr title "packet drop: incorrectly received, count"
scalar MixedLAN.hubHostB.eth.mac packetDropIncorrectlyReceived:sum(packetBytes) 0
attr interpolationmode none
attr recordingmode sum(packetBytes)
attr source packetDropReasonIsIncorrectlyReceived(packetDropped)
attr title "packet drop: incorrectly received, sum(packetBytes)"
scalar MixedLAN.hubHostB.eth.mac packetDropInterfaceDown:count 0
attr interpolationmode none
attr recordingmode count
attr source packetDropReasonIsInterfaceDown(packetDropped)
attr title "packet drop: interface down, count"
scalar MixedLAN.hubHostB.eth.mac packetDropInterfaceDown:sum(packetBytes) 0
attr interpolationmode none
attr recordingmode sum(packetBytes)
attr source packetDropReasonIsInterfaceDown(packetDropped)
attr title "packet drop: interface down, sum(packetBytes)"
scalar MixedLAN.hubHostB.eth.mac packetDropNotAddressedToUs:count 29816
attr interpolationmode none
attr recordingmode count
attr source packetDropReasonIsNotAddressedToUs(packetDropped)
attr title "packet drop: not addressed to us, count"
scalar MixedLAN.hubHostB.eth.mac packetDropNotAddressedToUs:sum(packetBytes) 34110639
attr interpolationmode none
attr recordingmode sum(packetBytes)
attr source packetDropReasonIsNotAddressedToUs(packetDropped)
attr title "packet drop: not addressed to us, sum(packetBytes)"
scalar MixedLAN.hubHostB.eth packetDropInterfaceDown:count 0
attr interpolationmode none
attr recordingmode count
attr source packetDropReasonIsInterfaceDown(packetDropped)
attr title "packet drops: interface down, count"
scalar MixedLAN.hubHostB.eth packetDropInterfaceDown:sum(packetBytes) 0
attr interpolationmode none
attr recordingmode sum(packetBytes)
attr source packetDropReasonIsInterfaceDown(packetDropped)
attr title "packet drops: interface down, sum(packetBytes)"
scalar MixedLAN.hubHostB.eth packetDropNoCarrier:count 0
attr interpolationmode none
attr recordingmode count
attr source packetDropReasonIsNoCarrier(packetDropped)
attr title "packet drops: no carrier, count"
scalar MixedLAN.hubHostB.eth packetDropNoCarrier:sum(packetBytes) 0
attr interpolationmode none
attr recordingmode sum(packetBytes)
attr source packetDropReasonIsNoCarrier(packetDropped)
attr title "packet drops: no carrier, sum(packetBytes)"
scalar MixedLAN.hubHostC.cli packetReceived:count 3428
attr interpolationmode none
attr recordingmode count
attr source packetReceived
attr title "packets received, count"
scalar MixedLAN.hubHostC.cli packetReceived:sum(packetBytes) 4252450
attr interpolationmode none
attr recordingmode sum(packetBytes)
attr source packetReceived
attr title "packets received, sum(packetBytes)"
statistic MixedLAN.hubHostC.cli endToEndDelay:histogram
field count 3428
field mean 0.0029377869236035
field stddev 0.0017736833229437
field min 6.34751e-05
field max 0.0131141663
field sum 10.070733574113
field sqrsum 0.040366848725737
attr interpolationmode none
attr recordingmode histogram
attr source dataAge(packetReceived)
attr title "end-to-end delay"
attr unit s
bin	-inf	0
bin	0	30
bin	0.0002	26
bin	0.0004	28
bin	0.0006	31
bin	0.0008	31
bin	0.001	33
bin	0.0012	936
bin	0.0014	55
bin	0.0016	45
bin	0.0018	59
bin	0.002	45
bin	0.0022	49
bin	0.0024	667
bin	0.0026	45
bin	0.0028	40
bin	0.003	36
bin	0.0032	44
bin	0.0034	39
bin	0.0036	40
bin	0.0038	419
bin	0.004	48
bin	0.0042	33
bin	0.0044	27
bin	0.0046	33
bin	0.0048	42
bin	0.005	211
bin	0.0052	30
bin	0.0054	26
bin	0.0056	22
bin	0.0058	20
bin	0.006	17
bin	0.0062	77
bin	0.0064	11
bin	0.0066	10
bin	0.0068	10
bin	0.007	6
bin	0.0072	7
bin	0.0074	42
bin	0.0076	7
bin	0.0078	8
bin	0.008	6
bin	0.0082	7
bin	0.0084	4
bin	0.0086	10
bin	0.0088	0
bin	0.009	2
bin	0.0092	2
bin	0.0094	2
bin	0.0096	1
bin	0.0098	3
bin	0.01	2
bin	0.0102	0
bin	0.0104	0
bin	0.0106	2
bin	0.0108	0
bin	0.011	0
bin	0.0112	0
bin	0.0114	0
bin	0.0116	0
bin	0.0118	0
bin	0.012	1
bin	0.0122	0
bin	0.0124	0
bin	0.0126	0
bin	0.0128	0
bin	0.013	1
bin	0.0132	0
scalar MixedLAN.hubHostC.cli packetSent:count 1139
attr interpolationmode none
attr recordingmode count
attr source packetSent
attr title "packets sent, count"
scalar MixedLAN.hubHostC.cli packetSent:sum(packetBytes) 833537
attr interpolationmode none
attr recordingmode sum(packetBytes)
attr source packetSent
attr title "packets sent, sum(packetBytes)"
scalar MixedLAN.hubHostC.srv packetReceived:count 0
attr interpolationmode none
attr recordingmode count
attr source packetReceived
attr title "packets received, count"
scalar MixedLAN.hubHostC.srv packetReceived:sum(packetBytes) 0
attr interpolationmode none
attr recordingmode sum(packetBytes)
attr source packetReceived
attr title "packets received, sum(packetBytes)"
statistic MixedLAN.hubHostC.srv endToEndDelay:histogram
field count 0
field mean -nan
field stddev nan
field min nan
field max nan
field sum 0
field sqrsum 0
attr interpolationmode none
attr recordingmode histogram
attr source dataAge(packetReceived)
attr title "end-to-end delay"
attr unit s
bin	-inf	0
bin	0	0
bin	1	0
scalar MixedLAN.hubHostC.srv packetSent:count 0
attr interpolationmode none
attr recordingmode count
attr source packetSent
attr title "packets sent, count"
scalar MixedLAN.hubHostC.srv packetSent:sum(packetBytes) 0
attr interpolationmode none
attr recordingmode sum(packetBytes)
attr source packetSent
attr title "packets sent, sum(packetBytes)"
scalar MixedLAN.hubHostC.encap pauseSent:count 0
attr recordingmode count
attr title "pause sent, count"
scalar MixedLAN.hubHostC.encap pauseSent:sum 0
attr recordingmode sum
attr title "pause sent, sum"
scalar MixedLAN.hubHostC.encap decapPk:count 3428
attr interpolationmode none
attr recordingmode count
attr source decapPk
attr title "packets decapsulated, count"
scalar MixedLAN.hubHostC.encap decapPk:sum(packetBytes) 4262734
attr interpolationmode none
attr recordingmode sum(packetBytes)
attr source decapPk
attr title "packets decapsulated, sum(packetBytes)"
scalar MixedLAN.hubHostC.encap encapPk:count 1139
attr interpolationmode none
attr recordingmode count
attr source encapPk
attr title "packets encapsulated, count"
scalar MixedLAN.hubHostC.encap encapPk:sum(packetBytes) 836954
attr interpolationmode none
attr recordingmode sum(packetBytes)
attr source encapPk
attr title "packets encapsulated, sum(packetBytes)"
scalar MixedLAN.hubHostC.eth.queue queueLength:last 0
attr autoWarmupFilter false
attr interpolationmode sample-hold
attr recordingmode last
attr source "warmup(atomic(constant0(packetPushEnded) + count(packetPushStarted) - count(packetPulled) - count(packetRemoved) - count(packetDropped)))"
attr title "queue length, last"
attr unit pk
scalar MixedLAN.hubHostC.eth.queue queueLength:max 1
attr autoWarmupFilter false
attr interpolationmode sample-hold
attr recordingmode max
attr source "warmup(atomic(constant0(packetPushEnded) + count(packetPushStarted) - count(packetPulled) - count(packetRemoved) - count(packetDropped)))"
attr title "queue length, max"
attr unit pk
scalar MixedLAN.hubHostC.eth.queue queueLength:timeavg 1.8390968919167e-05
attr autoWarmupFilter false
attr interpolationmode sample-hold
attr recordingmode timeavg
attr source "warmup(atomic(constant0(packetPushEnded) + count(packetPushStarted) - count(packetPulled) - count(packetRemoved) - count(packetDropped)))"
attr title "queue length, timeavg"
attr unit pk
scalar MixedLAN.hubHostC.eth.queue queueBitLength:last 0
attr autoWarmupFilter false
attr interpolationmode sample-hold
attr recordingmode last
attr source "warmup(atomic(constant0(packetPushEnded) + sum(packetLength(packetPushStarted)) - sum(packetLength(packetPulled)) - sum(packetLength(packetRemoved)) - sum(packetLength(packetDropped))))"
attr title "queue bit length, last"
attr unit b
scalar MixedLAN.hubHostC.eth.queue queueBitLength:max 11344
attr autoWarmupFilter false
attr interpolationmode sample-hold
attr recordingmode max
attr source "warmup(atomic(constant0(packetPushEnded) + sum(packetLength(packetPushStarted)) - sum(packetLength(packetPulled)) - sum(packetLength(packetRemoved)) - sum(packetLength(packetDropped))))"
attr title "queue bit length, max"
attr unit b
scalar MixedLAN.hubHostC.eth.queue queueBitLength:timeavg 0.10037595163105
attr autoWarmupFilter false
attr interpolationmode sample-hold
attr recordingmode timeavg
attr source "warmup(atomic(constant0(packetPushEnded) + sum(packetLength(packetPushStarted)) - sum(packetLength(packetPulled)) - sum(packetLength(packetRemoved)) - sum(packetLength(packetDropped))))"
attr title "queue bit length, timeavg"
attr unit b
statistic MixedLAN.hubHostC.eth.queue queueingTime:histogram
field count 1139
field mean 1.9375911064969e-05
field stddev 0.00012204263423086
field min 0
field max 0.001225670917
field sum 0.022069162703
field sqrsum 1.7377442534481e-05
attr interpolationmode none
attr recordingmode histogram
attr source queueingTime(packetPulled)
attr title "queueing times"
attr unit s
bin	-inf	0
bin	0	1102
bin	2e-05	0
bin	4e-05	0
bin	6e-05	1
bin	8e-05	1
bin	0.0001	1
bin	0.00012	0
bin	0.00014	0
bin	0.00016	0
bin	0.00018	2
bin	0.0002	0
bin	0.00022	2
bin	0.00024	0
bin	0.00026	1
bin	0.00028	0
bin	0.0003	1
bin	0.00032	1
bin	0.00034	2
bin	0.00036	2
bin	0.00038	1
bin	0.0004	0
bin	0.00042	1
bin	0.00044	0
bin	0.00046	0
bin	0.00048	1
bin	0.0005	1
bin	0.00052	0
bin	0.00054	0
bin	0.00056	0
bin	0.00058	1
bin	0.0006	0
bin	0.00062	2
bin	0.00064	1
bin	0.00066	0
bin	0.00068	0
bin	0.0007	0
bin	0.00072	0
bin	0.00074	1
bin	0.00076	2
bin	0.00078	0
bin	0.0008	3
bin	0.00082	0
bin	0.00084	0
bin	0.00086	0
bin	0.00088	0
bin	0.0009	0
bin	0.00092	1
bin	0.00094	1
bin	0.00096	0
bin	0.00098	1
bin	0.001	0
bin	0.00102	0
bin	0.00104	2
bin	0.00106	0
bin	0.00108	0
bin	0.0011	1
bin	0.00112	1
bin	0.00114	1
bin	0.00116	0
bin	0.00118	0
bin	0.0012	0
bin	0.00122	1
bin	0.00124	0
bin	0.00126	0
bin	0.00128	0
bin	0.0013	0
bin	0.00132	0
scalar MixedLAN.hubHostC.eth.queue outgoingPackets:count 1139
attr recordingmode count
attr source packetPulled
attr title "outgoing packets, count"
attr unit pk
scalar MixedLAN.hubHostC.eth.queue outgoingPacketLengths:sum 6859648
attr interpolationmode none
attr recordingmode sum
attr source packetLength(packetPulled)
attr title "outgoing packet lengths, sum"
attr unit b
statistic MixedLAN.hubHostC.eth.queue outgoingPacketLengths:histogram
field count 1139
field mean 6022.5179982441
field stddev 3092.3228246747
field min 576
field max 11368
field sum 6859648
field sqrsum 52194433536
attr interpolationmode none
attr recordingmode histogram
attr source packetLength(packetPulled)
attr title "outgoing packet lengths"
attr unit b
bin	-inf	0
bin	0	0
bin	200	0
bin	400	2
bin	600	23
bin	800	20
bin	1000	16
bin	1200	20
bin	1400	23
bin	1600	19
bin	1800	18
bin	2000	20
bin	2200	22
bin	2400	16
bin	2600	21
bin	2800	25
bin	3000	19
bin	3200	26
bin	3400	15
bin	3600	26
bin	3800	22
bin	4000	19
bin	4200	18
bin	4400	23
bin	4600	18
bin	4800	27
bin	5000	15
bin	5200	26
bin	5400	26
bin	5600	18
bin	5800	16
bin	6000	18
bin	6200	36
bin	6400	20
bin	6600	24
bin	6800	18
bin	7000	22
bin	7200	18
bin	7400	24
bin	7600	24
bin	7800	24
bin	8000	19
bin	8200	16
bin	8400	30
bin	8600	23
bin	8800	18
bin	9000	21
bin	9200	15
bin	9400	16
bin	9600	21
bin	9800	17
bin	10000	25
bin	10200	22
bin	10400	30
bin	10600	15
bin	10800	27
bin	11000	19
bin	11200	18
bin	11400	0
bin	11600	0
bin	11800	0
bin	12000	0
bin	12200	0
bin	12400	0
bin	12600	0
bin	12800	0
bin	13000	0
bin	13200	0
bin	13400	0
bin	13600	0
bin	13800	0
bin	14000	0
bin	14200	0
statistic MixedLAN.hubHostC.eth.queue flowQueueingTime:histogram
field count 0
field mean -nan
field stddev nan
field min nan
field max nan
field sum 0
field sqrsum 0
attr interpolationmode none
attr recordingmode histogram
attr source queueingTime(demuxFlow(packetPulled))
attr title "flow queueing times"
attr unit s
bin	-inf	0
bin	0	0
bin	1	0
scalar MixedLAN.hubHostC.eth.queue incomingPackets:count 1139
attr recordingmode count
attr source packetPushStarted
attr title "incoming packets, count"
attr unit pk
scalar MixedLAN.hubHostC.eth.queue incomingPacketLengths:sum 6859648
attr interpolationmode none
attr recordingmode sum
attr source packetLength(packetPushStarted)
attr title "incoming packet lengths, sum"
attr unit b
statistic MixedLAN.hubHostC.eth.queue incomingPacketLengths:histogram
field count 1139
field mean 6022.5179982441
field stddev 3092.3228246747
field min 576
field max 11368
field sum 6859648
field sqrsum 52194433536
attr interpolationmode none
attr recordingmode histogram
attr source packetLength(packetPushStarted)
attr title "incoming packet lengths"
attr unit b
bin	-inf	0
bin	0	0
bin	200	0
bin	400	2
bin	600	23
bin	800	20
bin	1000	16
bin	1200	20
bin	1400	23
bin	1600	19
bin	1800	18
bin	2000	20
bin	2200	22
bin	2400	16
bin	2600	21
bin	2800	25
bin	3000	19
bin	3200	26
bin	3400	15
bin	3600	26
bin	3800	22
bin	4000	19
bin	4200	18
bin	4400	23
bin	4600	18
bin	4800	27
bin	5000	15
bin	5200	26
bin	5400	26
bin	5600	18
bin	5800	16
bin	6000	18
bin	6200	36
bin	6400	20
bin	6600	24
bin	6800	18
bin	7000	22
bin	7200	18
bin	7400	24
bin	7600	24
bin	7800	24
bin	8000	19
bin	8200	16
bin	8400	30
bin	8600	23
bin	8800	18
bin	9000	21
bin	9200	15
bin	9400	16
bin	9600	21
bin	9800	17
bin	10000	25
bin	10200	22
bin	10400	30
bin	10600	15
bin	10800	27
bin	11000	19
bin	11200	18
bin	11400	0
bin	11600	0
bin	11800	0
bin	12000	0
bin	12200	0
bin	12400	0
bin	12600	0
bin	12800	0
bin	13000	0
bin	13200	0
bin	13400	0
bin	13600	0
bin	13800	0
bin	14000	0
bin	14200	0
scalar MixedLAN.hubHostC.eth.queue droppedPacketsQueueOverflow:count 0
attr interpolationmode none
attr recordingmode count
attr source packetDropReasonIsQueueOverflow(packetDropped)
attr title "dropped packets: queue overflow, count"
attr unit pk
scalar MixedLAN.hubHostC.eth.queue droppedPacketLengthsQueueOverflow:sum 0
attr interpolationmode none
attr recordingmode sum
attr source packetLength(packetDropReasonIsQueueOverflow(packetDropped))
attr title "dropped packet lengths: queue overflow, sum"
attr unit b
scalar MixedLAN.hubHostC.eth.mac "simulated time" 1200
scalar MixedLAN.hubHostC.eth.mac full-duplex 0
scalar MixedLAN.hubHostC.eth.mac "frames/sec sent" 0.94916666666667
scalar MixedLAN.hubHostC.eth.mac "frames/sec rcvd" 2.8566666666667
scalar MixedLAN.hubHostC.eth.mac "bits/sec sent" 5716.3733333333
scalar MixedLAN.hubHostC.eth.mac "bits/sec rcvd" 28835.16
scalar MixedLAN.hubHostC.eth.mac "rx channel idle (%)" 97.336916176417
scalar MixedLAN.hubHostC.eth.mac "rx channel utilization (%)" 2.6629673333333
scalar MixedLAN.hubHostC.eth.mac "rx channel collision (%)" 0.00011649025
scalar MixedLAN.hubHostC.eth.mac collisions 416
scalar MixedLAN.hubHostC.eth.mac backoffs 77
scalar MixedLAN.hubHostC.eth.mac backoffSlotsGenerated:count 77
attr interpolationmode none
attr recordingmode count
attr title "backoff, count"
scalar MixedLAN.hubHostC.eth.mac collision:count 416
attr interpolationmode none
attr recordingmode count
attr title "collision, count"
scalar MixedLAN.hubHostC.eth.mac rxPausePkUnits:count 0
attr interpolationmode none
attr recordingmode count
attr title "pause units received, count"
scalar MixedLAN.hubHostC.eth.mac rxPausePkUnits:sum 0
attr interpolationmode none
attr recordingmode sum
attr title "pause units received, sum"
scalar MixedLAN.hubHostC.eth.mac txPausePkUnits:count 0
attr interpolationmode none
attr recordingmode count
attr title "pause units sent, count"
scalar MixedLAN.hubHostC.eth.mac txPausePkUnits:sum 0
attr interpolationmode none
attr recordingmode sum
attr title "pause units sent, sum"
scalar MixedLAN.hubHostC.eth.mac rxPkOk:count 3428
attr interpolationmode none
attr recordingmode count
attr source rxPkOk
attr title "packets received OK, count"
scalar MixedLAN.hubHostC.eth.mac rxPkOk:sum(packetBytes) 4325274
attr interpolationmode none
attr recordingmode sum(packetBytes)
attr source rxPkOk
attr title "packets received OK, sum(packetBytes)"
scalar MixedLAN.hubHostC.eth.mac txPk:count 1139
attr interpolationmode none
attr recordingmode count
attr source packetSentToLower
attr title "packets transmitted, count"
scalar MixedLAN.hubHostC.eth.mac txPk:sum(packetBytes) 857456
attr interpolationmode none
attr recordingmode sum(packetBytes)
attr source packetSentToLower
attr title "packets transmitted, sum(packetBytes)"
scalar MixedLAN.hubHostC.eth.mac packetReceivedFromUpper:count 1139
attr interpolationmode none
attr recordingmode count
attr source packetReceivedFromUpper
attr title "packet bytes from higher layer, count"
scalar MixedLAN.hubHostC.eth.mac packetReceivedFromUpper:sum(packetBytes) 857456
attr interpolationmode none
attr recordingmode sum(packetBytes)
attr source packetReceivedFromUpper
attr title "packet bytes from higher layer, sum(packetBytes)"
scalar MixedLAN.hubHostC.eth.mac passedUpPk:count 3428
attr interpolationmode none
attr recordingmode count
attr source packetSentToUpper
attr title "packets passed to higher layer, count"
scalar MixedLAN.hubHostC.eth.mac passedUpPk:sum(packetBytes) 4325274
attr interpolationmode none
attr recordingmode sum(packetBytes)
attr source packetSentToUpper
attr title "packets passed to higher layer, sum(packetBytes)"
scalar MixedLAN.hubHostC.eth.mac packetDropIncorrectlyReceived:count 0
attr interpolationmode none
attr recordingmode count
attr source packetDropReasonIsIncorrectlyReceived(packetDropped)
attr title "packet drop: incorrectly received, count"
scalar MixedLAN.hubHostC.eth.mac packetDropIncorrectlyReceived:sum(packetBytes) 0
attr interpolationmode none
attr recordingmode sum(packetBytes)
attr source packetDropReasonIsIncorrectlyReceived(packetDropped)
attr title "packet drop: incorrectly received, sum(packetBytes)"
scalar MixedLAN.hubHostC.eth.mac packetDropInterfaceDown:count 0
attr interpolationmode none
attr recordingmode count
attr source packetDropReasonIsInterfaceDown(packetDropped)
attr title "packet drop: interface down, count"
scalar MixedLAN.hubHostC.eth.mac packetDropInterfaceDown:sum(packetBytes) 0
attr interpolationmode none
attr recordingmode sum(packetBytes)
attr source packetDropReasonIsInterfaceDown(packetDropped)
attr title "packet drop: interface down, sum(packetBytes)"
scalar MixedLAN.hubHostC.eth.mac packetDropNotAddressedToUs:count 30115
attr interpolationmode none
attr recordingmode count
attr source packetDropReasonIsNotAddressedToUs(packetDropped)
attr title "packet drop: not addressed to us, count"
scalar MixedLAN.hubHostC.eth.mac packetDropNotAddressedToUs:sum(packetBytes) 34484324
attr interpolationmode none
attr recordingmode sum(packetBytes)
attr source packetDropReasonIsNotAddressedToUs(packetDropped)
attr title "packet drop: not addressed to us, sum(packetBytes)"
scalar MixedLAN.hubHostC.eth packetDropInterfaceDown:count 0
attr interpolationmode none
attr recordingmode count
attr source packetDropReasonIsInterfaceDown(packetDropped)
attr title "packet drops: interface down, count"
scalar MixedLAN.hubHostC.eth packetDropInterfaceDown:sum(packetBytes) 0
attr interpolationmode none
attr recordingmode sum(packetBytes)
attr source packetDropReasonIsInterfaceDown(packetDropped)
attr title "packet drops: interface down, sum(packetBytes)"
scalar MixedLAN.hubHostC.eth packetDropNoCarrier:count 0
attr interpolationmode none
attr recordingmode count
attr source packetDropReasonIsNoCarrier(packetDropped)
attr title "packet drops: no carrier, count"
scalar MixedLAN.hubHostC.eth packetDropNoCarrier:sum(packetBytes) 0
attr interpolationmode none
attr recordingmode sum(packetBytes)
attr source packetDropReasonIsNoCarrier(packetDropped)
attr title "packet drops: no carrier, sum(packetBytes)"
scalar MixedLAN.hub packetReceived:count 37184
attr interpolationmode none
attr recordingmode count
attr source packetReceived
attr title "packets, count"
scalar MixedLAN.hub packetReceived:sum(packetBytes) 40788184
attr interpolationmode none
attr recordingmode sum(packetBytes)
attr source packetReceived
attr title "packets, sum(packetBytes)"

