version 3
run SwitchedLAN1-0-20251118-11:41:12-110005
attr configname SwitchedLAN1
attr datetime 20251118-11:41:12
attr datetimef 20251118-114112
attr experiment SwitchedLAN1
attr inifile switch.ini
attr iterationvars ""
attr iterationvarsd ""
attr iterationvarsf ""
attr measurement ""
attr network SwitchedLAN
attr processid 110005
attr repetition 0
attr replication #0
attr resultdir results
attr runnumber 0
attr seedset 0
config **.param-recording false
config image-path /home/zoli/Projects/OMNET/inet/images
config output-scalar-file results/switch.ini-SwitchedLAN1-#0.sca
config output-scalar-precision 17
config output-vector-file results/switch.ini-SwitchedLAN1-#0.vec
config output-vector-precision 17
config record-eventlog false
config sim-time-limit 1000s
config sim-time-limit 1000s
config network SwitchedLAN
config **.hostA.cli.destAddress "\"\""
config **.cli.destAddress "\"hostA\""
config **.cli.sendInterval exponential(1s)
config **.switch*.bridging.typename MacRelayUnit
config **.cli.reqLength intuniform(50,1400)*1B
config **.cli.respLength intWithUnit(truncnormal(3000B,3000B))
config **.vector-recording false
config description (abstract)

scalar SwitchedLAN.hostA.cli packetReceived:count 0
scalar SwitchedLAN.hostA.cli packetReceived:sum(packetBytes) 0
scalar SwitchedLAN.hostA.cli packetSent:count 0
scalar SwitchedLAN.hostA.cli packetSent:sum(packetBytes) 0
scalar SwitchedLAN.hostA.srv packetReceived:count 3025
scalar SwitchedLAN.hostA.srv packetReceived:sum(packetBytes) 2173688
scalar SwitchedLAN.hostA.srv packetSent:count 9499
scalar SwitchedLAN.hostA.srv packetSent:sum(packetBytes) 11843569
scalar SwitchedLAN.hostA.encap pauseSent:count 0
scalar SwitchedLAN.hostA.encap pauseSent:sum 0
scalar SwitchedLAN.hostA.encap decapPk:count 3025
scalar SwitchedLAN.hostA.encap decapPk:sum(packetBytes) 2182763
scalar SwitchedLAN.hostA.encap encapPk:count 9499
scalar SwitchedLAN.hostA.encap encapPk:sum(packetBytes) 11872066
scalar SwitchedLAN.hostA.eth.queue queueLength:last 0
scalar SwitchedLAN.hostA.eth.queue queueLength:max 9
scalar SwitchedLAN.hostA.eth.queue queueLength:timeavg 0.0017242122265600291
scalar SwitchedLAN.hostA.eth.queue queueBitLength:last 0
scalar SwitchedLAN.hostA.eth.queue queueBitLength:max 99136
scalar SwitchedLAN.hostA.eth.queue queueBitLength:timeavg 15.692833423928132
scalar SwitchedLAN.hostA.eth.queue outgoingPackets:count 9499
scalar SwitchedLAN.hostA.eth.queue outgoingPacketLengths:sum 96344384
scalar SwitchedLAN.hostA.eth.queue incomingPackets:count 9499
scalar SwitchedLAN.hostA.eth.queue incomingPacketLengths:sum 96344384
scalar SwitchedLAN.hostA.eth.queue droppedPacketsQueueOverflow:count 0
scalar SwitchedLAN.hostA.eth.queue droppedPacketLengthsQueueOverflow:sum 0
scalar SwitchedLAN.hostA.eth.mac "simulated time" 1000
scalar SwitchedLAN.hostA.eth.mac full-duplex 1
scalar SwitchedLAN.hostA.eth.mac "frames/sec sent" 9.4990000000000006
scalar SwitchedLAN.hostA.eth.mac "frames/sec rcvd" 3.0249999999999999
scalar SwitchedLAN.hostA.eth.mac "bits/sec sent" 96362.232000000004
scalar SwitchedLAN.hostA.eth.mac "bits/sec rcvd" 17897.704000000002
scalar SwitchedLAN.hostA.eth.mac "rx channel idle (%)" 99.981908696000005
scalar SwitchedLAN.hostA.eth.mac "rx channel utilization (%)" 0.018091303999999999
scalar SwitchedLAN.hostA.eth.mac rxPausePkUnits:count 0
scalar SwitchedLAN.hostA.eth.mac rxPausePkUnits:sum 0
scalar SwitchedLAN.hostA.eth.mac txPausePkUnits:count 0
scalar SwitchedLAN.hostA.eth.mac txPausePkUnits:sum 0
scalar SwitchedLAN.hostA.eth.mac rxPkOk:count 3025
scalar SwitchedLAN.hostA.eth.mac rxPkOk:sum(packetBytes) 2237213
scalar SwitchedLAN.hostA.eth.mac txPk:count 9499
scalar SwitchedLAN.hostA.eth.mac txPk:sum(packetBytes) 12045279
scalar SwitchedLAN.hostA.eth.mac packetReceivedFromUpper:count 9499
scalar SwitchedLAN.hostA.eth.mac packetReceivedFromUpper:sum(packetBytes) 12043048
scalar SwitchedLAN.hostA.eth.mac passedUpPk:count 3025
scalar SwitchedLAN.hostA.eth.mac passedUpPk:sum(packetBytes) 2237213
scalar SwitchedLAN.hostA.eth.mac packetDropIncorrectlyReceived:count 0
scalar SwitchedLAN.hostA.eth.mac packetDropIncorrectlyReceived:sum(packetBytes) 0
scalar SwitchedLAN.hostA.eth.mac packetDropInterfaceDown:count 0
scalar SwitchedLAN.hostA.eth.mac packetDropInterfaceDown:sum(packetBytes) 0
scalar SwitchedLAN.hostA.eth.mac packetDropNotAddressedToUs:count 0
scalar SwitchedLAN.hostA.eth.mac packetDropNotAddressedToUs:sum(packetBytes) 0
scalar SwitchedLAN.hostA.eth packetDropInterfaceDown:count 0
scalar SwitchedLAN.hostA.eth packetDropInterfaceDown:sum(packetBytes) 0
scalar SwitchedLAN.hostA.eth packetDropNoCarrier:count 0
scalar SwitchedLAN.hostA.eth packetDropNoCarrier:sum(packetBytes) 0
scalar SwitchedLAN.hostB.cli packetReceived:count 3256
scalar SwitchedLAN.hostB.cli packetReceived:sum(packetBytes) 4064396
scalar SwitchedLAN.hostB.cli packetSent:count 1042
scalar SwitchedLAN.hostB.cli packetSent:sum(packetBytes) 746913
scalar SwitchedLAN.hostB.srv packetReceived:count 0
scalar SwitchedLAN.hostB.srv packetReceived:sum(packetBytes) 0
scalar SwitchedLAN.hostB.srv packetSent:count 0
scalar SwitchedLAN.hostB.srv packetSent:sum(packetBytes) 0
scalar SwitchedLAN.hostB.encap pauseSent:count 0
scalar SwitchedLAN.hostB.encap pauseSent:sum 0
scalar SwitchedLAN.hostB.encap decapPk:count 3256
scalar SwitchedLAN.hostB.encap decapPk:sum(packetBytes) 4074164
scalar SwitchedLAN.hostB.encap encapPk:count 1042
scalar SwitchedLAN.hostB.encap encapPk:sum(packetBytes) 750039
scalar SwitchedLAN.hostB.eth.queue queueLength:last 0
scalar SwitchedLAN.hostB.eth.queue queueLength:max 0
scalar SwitchedLAN.hostB.eth.queue queueLength:timeavg 0
scalar SwitchedLAN.hostB.eth.queue queueBitLength:last 0
scalar SwitchedLAN.hostB.eth.queue queueBitLength:max 0
scalar SwitchedLAN.hostB.eth.queue queueBitLength:timeavg 0
scalar SwitchedLAN.hostB.eth.queue outgoingPackets:count 1042
scalar SwitchedLAN.hostB.eth.queue outgoingPacketLengths:sum 6150360
scalar SwitchedLAN.hostB.eth.queue incomingPackets:count 1042
scalar SwitchedLAN.hostB.eth.queue incomingPacketLengths:sum 6150360
scalar SwitchedLAN.hostB.eth.queue droppedPacketsQueueOverflow:count 0
scalar SwitchedLAN.hostB.eth.queue droppedPacketLengthsQueueOverflow:sum 0
scalar SwitchedLAN.hostB.eth.mac "simulated time" 1000
scalar SwitchedLAN.hostB.eth.mac full-duplex 1
scalar SwitchedLAN.hostB.eth.mac "frames/sec sent" 1.042
scalar SwitchedLAN.hostB.eth.mac "frames/sec rcvd" 3.2559999999999998
scalar SwitchedLAN.hostB.eth.mac "bits/sec sent" 6150.3599999999997
scalar SwitchedLAN.hostB.eth.mac "bits/sec rcvd" 33068.103999999999
scalar SwitchedLAN.hostB.eth.mac "rx channel idle (%)" 99.966723512000002
scalar SwitchedLAN.hostB.eth.mac "rx channel utilization (%)" 0.033276488
scalar SwitchedLAN.hostB.eth.mac rxPausePkUnits:count 0
scalar SwitchedLAN.hostB.eth.mac rxPausePkUnits:sum 0
scalar SwitchedLAN.hostB.eth.mac txPausePkUnits:count 0
scalar SwitchedLAN.hostB.eth.mac txPausePkUnits:sum 0
scalar SwitchedLAN.hostB.eth.mac rxPkOk:count 3256
scalar SwitchedLAN.hostB.eth.mac rxPkOk:sum(packetBytes) 4133513
scalar SwitchedLAN.hostB.eth.mac txPk:count 1042
scalar SwitchedLAN.hostB.eth.mac txPk:sum(packetBytes) 768795
scalar SwitchedLAN.hostB.eth.mac packetReceivedFromUpper:count 1042
scalar SwitchedLAN.hostB.eth.mac packetReceivedFromUpper:sum(packetBytes) 768795
scalar SwitchedLAN.hostB.eth.mac passedUpPk:count 3256
scalar SwitchedLAN.hostB.eth.mac passedUpPk:sum(packetBytes) 4133513
scalar SwitchedLAN.hostB.eth.mac packetDropIncorrectlyReceived:count 0
scalar SwitchedLAN.hostB.eth.mac packetDropIncorrectlyReceived:sum(packetBytes) 0
scalar SwitchedLAN.hostB.eth.mac packetDropInterfaceDown:count 0
scalar SwitchedLAN.hostB.eth.mac packetDropInterfaceDown:sum(packetBytes) 0
scalar SwitchedLAN.hostB.eth.mac packetDropNotAddressedToUs:count 0
scalar SwitchedLAN.hostB.eth.mac packetDropNotAddressedToUs:sum(packetBytes) 0
scalar SwitchedLAN.hostB.eth packetDropInterfaceDown:count 0
scalar SwitchedLAN.hostB.eth packetDropInterfaceDown:sum(packetBytes) 0
scalar SwitchedLAN.hostB.eth packetDropNoCarrier:count 0
scalar SwitchedLAN.hostB.eth packetDropNoCarrier:sum(packetBytes) 0
scalar SwitchedLAN.hostC.cli packetReceived:count 3058
scalar SwitchedLAN.hostC.cli packetReceived:sum(packetBytes) 3822410
scalar SwitchedLAN.hostC.cli packetSent:count 978
scalar SwitchedLAN.hostC.cli packetSent:sum(packetBytes) 685788
scalar SwitchedLAN.hostC.srv packetReceived:count 0
scalar SwitchedLAN.hostC.srv packetReceived:sum(packetBytes) 0
scalar SwitchedLAN.hostC.srv packetSent:count 0
scalar SwitchedLAN.hostC.srv packetSent:sum(packetBytes) 0
scalar SwitchedLAN.hostC.encap pauseSent:count 0
scalar SwitchedLAN.hostC.encap pauseSent:sum 0
scalar SwitchedLAN.hostC.encap decapPk:count 3058
scalar SwitchedLAN.hostC.encap decapPk:sum(packetBytes) 3831584
scalar SwitchedLAN.hostC.encap encapPk:count 978
scalar SwitchedLAN.hostC.encap encapPk:sum(packetBytes) 688722
scalar SwitchedLAN.hostC.eth.queue queueLength:last 0
scalar SwitchedLAN.hostC.eth.queue queueLength:max 0
scalar SwitchedLAN.hostC.eth.queue queueLength:timeavg 0
scalar SwitchedLAN.hostC.eth.queue queueBitLength:last 0
scalar SwitchedLAN.hostC.eth.queue queueBitLength:max 0
scalar SwitchedLAN.hostC.eth.queue queueBitLength:timeavg 0
scalar SwitchedLAN.hostC.eth.queue outgoingPackets:count 978
scalar SwitchedLAN.hostC.eth.queue outgoingPacketLengths:sum 5650608
scalar SwitchedLAN.hostC.eth.queue incomingPackets:count 978
scalar SwitchedLAN.hostC.eth.queue incomingPacketLengths:sum 5650608
scalar SwitchedLAN.hostC.eth.queue droppedPacketsQueueOverflow:count 0
scalar SwitchedLAN.hostC.eth.queue droppedPacketLengthsQueueOverflow:sum 0
scalar SwitchedLAN.hostC.eth.mac "simulated time" 1000
scalar SwitchedLAN.hostC.eth.mac full-duplex 1
scalar SwitchedLAN.hostC.eth.mac "frames/sec sent" 0.97799999999999998
scalar SwitchedLAN.hostC.eth.mac "frames/sec rcvd" 3.0579999999999998
scalar SwitchedLAN.hostC.eth.mac "bits/sec sent" 5650.6080000000002
scalar SwitchedLAN.hostC.eth.mac "bits/sec rcvd" 31100.16
scalar SwitchedLAN.hostC.eth.mac "rx channel idle (%)" 99.968696816000005
scalar SwitchedLAN.hostC.eth.mac "rx channel utilization (%)" 0.031303184000000005
scalar SwitchedLAN.hostC.eth.mac rxPausePkUnits:count 0
scalar SwitchedLAN.hostC.eth.mac rxPausePkUnits:sum 0
scalar SwitchedLAN.hostC.eth.mac txPausePkUnits:count 0
scalar SwitchedLAN.hostC.eth.mac txPausePkUnits:sum 0
scalar SwitchedLAN.hostC.eth.mac rxPkOk:count 3058
scalar SwitchedLAN.hostC.eth.mac rxPkOk:sum(packetBytes) 3887520
scalar SwitchedLAN.hostC.eth.mac txPk:count 978
scalar SwitchedLAN.hostC.eth.mac txPk:sum(packetBytes) 706326
scalar SwitchedLAN.hostC.eth.mac packetReceivedFromUpper:count 978
scalar SwitchedLAN.hostC.eth.mac packetReceivedFromUpper:sum(packetBytes) 706326
scalar SwitchedLAN.hostC.eth.mac passedUpPk:count 3058
scalar SwitchedLAN.hostC.eth.mac passedUpPk:sum(packetBytes) 3887520
scalar SwitchedLAN.hostC.eth.mac packetDropIncorrectlyReceived:count 0
scalar SwitchedLAN.hostC.eth.mac packetDropIncorrectlyReceived:sum(packetBytes) 0
scalar SwitchedLAN.hostC.eth.mac packetDropInterfaceDown:count 0
scalar SwitchedLAN.hostC.eth.mac packetDropInterfaceDown:sum(packetBytes) 0
scalar SwitchedLAN.hostC.eth.mac packetDropNotAddressedToUs:count 1
scalar SwitchedLAN.hostC.eth.mac packetDropNotAddressedToUs:sum(packetBytes) 906
scalar SwitchedLAN.hostC.eth packetDropInterfaceDown:count 0
scalar SwitchedLAN.hostC.eth packetDropInterfaceDown:sum(packetBytes) 0
scalar SwitchedLAN.hostC.eth packetDropNoCarrier:count 0
scalar SwitchedLAN.hostC.eth packetDropNoCarrier:sum(packetBytes) 0
scalar SwitchedLAN.hostD.cli packetReceived:count 3185
scalar SwitchedLAN.hostD.cli packetReceived:sum(packetBytes) 3956763
scalar SwitchedLAN.hostD.cli packetSent:count 1005
scalar SwitchedLAN.hostD.cli packetSent:sum(packetBytes) 740987
scalar SwitchedLAN.hostD.srv packetReceived:count 0
scalar SwitchedLAN.hostD.srv packetReceived:sum(packetBytes) 0
scalar SwitchedLAN.hostD.srv packetSent:count 0
scalar SwitchedLAN.hostD.srv packetSent:sum(packetBytes) 0
scalar SwitchedLAN.hostD.encap pauseSent:count 0
scalar SwitchedLAN.hostD.encap pauseSent:sum 0
scalar SwitchedLAN.hostD.encap decapPk:count 3185
scalar SwitchedLAN.hostD.encap decapPk:sum(packetBytes) 3966318
scalar SwitchedLAN.hostD.encap encapPk:count 1005
scalar SwitchedLAN.hostD.encap encapPk:sum(packetBytes) 744002
scalar SwitchedLAN.hostD.eth.queue queueLength:last 0
scalar SwitchedLAN.hostD.eth.queue queueLength:max 0
scalar SwitchedLAN.hostD.eth.queue queueLength:timeavg 0
scalar SwitchedLAN.hostD.eth.queue queueBitLength:last 0
scalar SwitchedLAN.hostD.eth.queue queueBitLength:max 0
scalar SwitchedLAN.hostD.eth.queue queueBitLength:timeavg 0
scalar SwitchedLAN.hostD.eth.queue outgoingPackets:count 1005
scalar SwitchedLAN.hostD.eth.queue outgoingPacketLengths:sum 6096736
scalar SwitchedLAN.hostD.eth.queue incomingPackets:count 1005
scalar SwitchedLAN.hostD.eth.queue incomingPacketLengths:sum 6096736
scalar SwitchedLAN.hostD.eth.queue droppedPacketsQueueOverflow:count 0
scalar SwitchedLAN.hostD.eth.queue droppedPacketLengthsQueueOverflow:sum 0
scalar SwitchedLAN.hostD.eth.mac "simulated time" 1000
scalar SwitchedLAN.hostD.eth.mac full-duplex 1
scalar SwitchedLAN.hostD.eth.mac "frames/sec sent" 1.0049999999999999
scalar SwitchedLAN.hostD.eth.mac "frames/sec rcvd" 3.1850000000000001
scalar SwitchedLAN.hostD.eth.mac "bits/sec sent" 6096.7359999999999
scalar SwitchedLAN.hostD.eth.mac "bits/sec rcvd" 32193.968000000001
scalar SwitchedLAN.hostD.eth.mac "rx channel idle (%)" 99.967594879999993
scalar SwitchedLAN.hostD.eth.mac "rx channel utilization (%)" 0.032405120000000003
scalar SwitchedLAN.hostD.eth.mac rxPausePkUnits:count 0
scalar SwitchedLAN.hostD.eth.mac rxPausePkUnits:sum 0
scalar SwitchedLAN.hostD.eth.mac txPausePkUnits:count 0
scalar SwitchedLAN.hostD.eth.mac txPausePkUnits:sum 0
scalar SwitchedLAN.hostD.eth.mac rxPkOk:count 3185
scalar SwitchedLAN.hostD.eth.mac rxPkOk:sum(packetBytes) 4024246
scalar SwitchedLAN.hostD.eth.mac txPk:count 1005
scalar SwitchedLAN.hostD.eth.mac txPk:sum(packetBytes) 762092
scalar SwitchedLAN.hostD.eth.mac packetReceivedFromUpper:count 1005
scalar SwitchedLAN.hostD.eth.mac packetReceivedFromUpper:sum(packetBytes) 762092
scalar SwitchedLAN.hostD.eth.mac passedUpPk:count 3185
scalar SwitchedLAN.hostD.eth.mac passedUpPk:sum(packetBytes) 4024246
scalar SwitchedLAN.hostD.eth.mac packetDropIncorrectlyReceived:count 0
scalar SwitchedLAN.hostD.eth.mac packetDropIncorrectlyReceived:sum(packetBytes) 0
scalar SwitchedLAN.hostD.eth.mac packetDropInterfaceDown:count 0
scalar SwitchedLAN.hostD.eth.mac packetDropInterfaceDown:sum(packetBytes) 0
scalar SwitchedLAN.hostD.eth.mac packetDropNotAddressedToUs:count 1
scalar SwitchedLAN.hostD.eth.mac packetDropNotAddressedToUs:sum(packetBytes) 906
scalar SwitchedLAN.hostD.eth packetDropInterfaceDown:count 0
scalar SwitchedLAN.hostD.eth packetDropInterfaceDown:sum(packetBytes) 0
scalar SwitchedLAN.hostD.eth packetDropNoCarrier:count 0
scalar SwitchedLAN.hostD.eth packetDropNoCarrier:sum(packetBytes) 0
scalar SwitchedLAN.switch.bridging "processed frames" 12524
scalar SwitchedLAN.switch.bridging "discarded frames" 0
scalar SwitchedLAN.switch.bridging packetDropped:count 0
scalar SwitchedLAN.switch.bridging packetDropped:sum(packetBytes) 0
scalar SwitchedLAN.switch.ethernet pauseSent:count 0
scalar SwitchedLAN.switch.ethernet pauseSent:sum 0
scalar SwitchedLAN.switch.ethernet decapPk:count 12524
scalar SwitchedLAN.switch.ethernet decapPk:sum(packetBytes) 14054829
scalar SwitchedLAN.switch.ethernet encapPk:count 12526
scalar SwitchedLAN.switch.ethernet encapPk:sum(packetBytes) 14056605
scalar SwitchedLAN.switch.eth[0].queue queueLength:last 0
scalar SwitchedLAN.switch.eth[0].queue queueLength:max 0
scalar SwitchedLAN.switch.eth[0].queue queueLength:timeavg 0
scalar SwitchedLAN.switch.eth[0].queue queueBitLength:last 0
scalar SwitchedLAN.switch.eth[0].queue queueBitLength:max 0
scalar SwitchedLAN.switch.eth[0].queue queueBitLength:timeavg 0
scalar SwitchedLAN.switch.eth[0].queue outgoingPackets:count 3025
scalar SwitchedLAN.switch.eth[0].queue outgoingPacketLengths:sum 17897704
scalar SwitchedLAN.switch.eth[0].queue incomingPackets:count 3025
scalar SwitchedLAN.switch.eth[0].queue incomingPacketLengths:sum 17897704
scalar SwitchedLAN.switch.eth[0].queue droppedPacketsQueueOverflow:count 0
scalar SwitchedLAN.switch.eth[0].queue droppedPacketLengthsQueueOverflow:sum 0
scalar SwitchedLAN.switch.eth[0].mac "simulated time" 1000
scalar SwitchedLAN.switch.eth[0].mac full-duplex 1
scalar SwitchedLAN.switch.eth[0].mac "frames/sec sent" 3.0249999999999999
scalar SwitchedLAN.switch.eth[0].mac "frames/sec rcvd" 9.4990000000000006
scalar SwitchedLAN.switch.eth[0].mac "bits/sec sent" 17897.704000000002
scalar SwitchedLAN.switch.eth[0].mac "bits/sec rcvd" 96362.232000000004
scalar SwitchedLAN.switch.eth[0].mac "rx channel idle (%)" 99.903029832000001
scalar SwitchedLAN.switch.eth[0].mac "rx channel utilization (%)" 0.096970167999999995
scalar SwitchedLAN.switch.eth[0].mac rxPausePkUnits:count 0
scalar SwitchedLAN.switch.eth[0].mac rxPausePkUnits:sum 0
scalar SwitchedLAN.switch.eth[0].mac txPausePkUnits:count 0
scalar SwitchedLAN.switch.eth[0].mac txPausePkUnits:sum 0
scalar SwitchedLAN.switch.eth[0].mac rxPkOk:count 9499
scalar SwitchedLAN.switch.eth[0].mac rxPkOk:sum(packetBytes) 12045279
scalar SwitchedLAN.switch.eth[0].mac txPk:count 3025
scalar SwitchedLAN.switch.eth[0].mac txPk:sum(packetBytes) 2237213
scalar SwitchedLAN.switch.eth[0].mac packetReceivedFromUpper:count 3025
scalar SwitchedLAN.switch.eth[0].mac packetReceivedFromUpper:sum(packetBytes) 2237213
scalar SwitchedLAN.switch.eth[0].mac passedUpPk:count 9499
scalar SwitchedLAN.switch.eth[0].mac passedUpPk:sum(packetBytes) 12045279
scalar SwitchedLAN.switch.eth[0].mac packetDropIncorrectlyReceived:count 0
scalar SwitchedLAN.switch.eth[0].mac packetDropIncorrectlyReceived:sum(packetBytes) 0
scalar SwitchedLAN.switch.eth[0].mac packetDropInterfaceDown:count 0
scalar SwitchedLAN.switch.eth[0].mac packetDropInterfaceDown:sum(packetBytes) 0
scalar SwitchedLAN.switch.eth[0].mac packetDropNotAddressedToUs:count 0
scalar SwitchedLAN.switch.eth[0].mac packetDropNotAddressedToUs:sum(packetBytes) 0
scalar SwitchedLAN.switch.eth[0] packetDropInterfaceDown:count 0
scalar SwitchedLAN.switch.eth[0] packetDropInterfaceDown:sum(packetBytes) 0
scalar SwitchedLAN.switch.eth[0] packetDropNoCarrier:count 0
scalar SwitchedLAN.switch.eth[0] packetDropNoCarrier:sum(packetBytes) 0
scalar SwitchedLAN.switch.eth[1].queue queueLength:last 0
scalar SwitchedLAN.switch.eth[1].queue queueLength:max 1
scalar SwitchedLAN.switch.eth[1].queue queueLength:timeavg 5.4626640000000006e-05
scalar SwitchedLAN.switch.eth[1].queue queueBitLength:last 0
scalar SwitchedLAN.switch.eth[1].queue queueBitLength:max 12096
scalar SwitchedLAN.switch.eth[1].queue queueBitLength:timeavg 0.21567898304000022
scalar SwitchedLAN.switch.eth[1].queue outgoingPackets:count 3256
scalar SwitchedLAN.switch.eth[1].queue outgoingPacketLengths:sum 33062176
scalar SwitchedLAN.switch.eth[1].queue incomingPackets:count 3256
scalar SwitchedLAN.switch.eth[1].queue incomingPacketLengths:sum 33062176
scalar SwitchedLAN.switch.eth[1].queue droppedPacketsQueueOverflow:count 0
scalar SwitchedLAN.switch.eth[1].queue droppedPacketLengthsQueueOverflow:sum 0
scalar SwitchedLAN.switch.eth[1].mac "simulated time" 1000
scalar SwitchedLAN.switch.eth[1].mac full-duplex 1
scalar SwitchedLAN.switch.eth[1].mac "frames/sec sent" 3.2559999999999998
scalar SwitchedLAN.switch.eth[1].mac "frames/sec rcvd" 1.042
scalar SwitchedLAN.switch.eth[1].mac "bits/sec sent" 33068.103999999999
scalar SwitchedLAN.switch.eth[1].mac "bits/sec rcvd" 6150.3599999999997
scalar SwitchedLAN.switch.eth[1].mac "rx channel idle (%)" 99.993782952000004
scalar SwitchedLAN.switch.eth[1].mac "rx channel utilization (%)" 0.0062170480000000002
scalar SwitchedLAN.switch.eth[1].mac rxPausePkUnits:count 0
scalar SwitchedLAN.switch.eth[1].mac rxPausePkUnits:sum 0
scalar SwitchedLAN.switch.eth[1].mac txPausePkUnits:count 0
scalar SwitchedLAN.switch.eth[1].mac txPausePkUnits:sum 0
scalar SwitchedLAN.switch.eth[1].mac rxPkOk:count 1042
scalar SwitchedLAN.switch.eth[1].mac rxPkOk:sum(packetBytes) 768795
scalar SwitchedLAN.switch.eth[1].mac txPk:count 3256
scalar SwitchedLAN.switch.eth[1].mac txPk:sum(packetBytes) 4133513
scalar SwitchedLAN.switch.eth[1].mac packetReceivedFromUpper:count 3256
scalar SwitchedLAN.switch.eth[1].mac packetReceivedFromUpper:sum(packetBytes) 4132772
scalar SwitchedLAN.switch.eth[1].mac passedUpPk:count 1042
scalar SwitchedLAN.switch.eth[1].mac passedUpPk:sum(packetBytes) 768795
scalar SwitchedLAN.switch.eth[1].mac packetDropIncorrectlyReceived:count 0
scalar SwitchedLAN.switch.eth[1].mac packetDropIncorrectlyReceived:sum(packetBytes) 0
scalar SwitchedLAN.switch.eth[1].mac packetDropInterfaceDown:count 0
scalar SwitchedLAN.switch.eth[1].mac packetDropInterfaceDown:sum(packetBytes) 0
scalar SwitchedLAN.switch.eth[1].mac packetDropNotAddressedToUs:count 0
scalar SwitchedLAN.switch.eth[1].mac packetDropNotAddressedToUs:sum(packetBytes) 0
scalar SwitchedLAN.switch.eth[1] packetDropInterfaceDown:count 0
scalar SwitchedLAN.switch.eth[1] packetDropInterfaceDown:sum(packetBytes) 0
scalar SwitchedLAN.switch.eth[1] packetDropNoCarrier:count 0
scalar SwitchedLAN.switch.eth[1] packetDropNoCarrier:sum(packetBytes) 0
scalar SwitchedLAN.switch.eth[2].queue queueLength:last 0
scalar SwitchedLAN.switch.eth[2].queue queueLength:max 1
scalar SwitchedLAN.switch.eth[2].queue queueLength:timeavg 5.1747600000000046e-05
scalar SwitchedLAN.switch.eth[2].queue queueBitLength:last 0
scalar SwitchedLAN.switch.eth[2].queue queueBitLength:max 12120
scalar SwitchedLAN.switch.eth[2].queue queueBitLength:timeavg 0.20139554496000042
scalar SwitchedLAN.switch.eth[2].queue outgoingPackets:count 3059
scalar SwitchedLAN.switch.eth[2].queue outgoingPacketLengths:sum 31100272
scalar SwitchedLAN.switch.eth[2].queue incomingPackets:count 3059
scalar SwitchedLAN.switch.eth[2].queue incomingPacketLengths:sum 31100272
scalar SwitchedLAN.switch.eth[2].queue droppedPacketsQueueOverflow:count 0
scalar SwitchedLAN.switch.eth[2].queue droppedPacketLengthsQueueOverflow:sum 0
scalar SwitchedLAN.switch.eth[2].mac "simulated time" 1000
scalar SwitchedLAN.switch.eth[2].mac full-duplex 1
scalar SwitchedLAN.switch.eth[2].mac "frames/sec sent" 3.0590000000000002
scalar SwitchedLAN.switch.eth[2].mac "frames/sec rcvd" 0.97799999999999998
scalar SwitchedLAN.switch.eth[2].mac "bits/sec sent" 31107.407999999999
scalar SwitchedLAN.switch.eth[2].mac "bits/sec rcvd" 5650.6080000000002
scalar SwitchedLAN.switch.eth[2].mac "rx channel idle (%)" 99.994286799999998
scalar SwitchedLAN.switch.eth[2].mac "rx channel utilization (%)" 0.0057131999999999999
scalar SwitchedLAN.switch.eth[2].mac rxPausePkUnits:count 0
scalar SwitchedLAN.switch.eth[2].mac rxPausePkUnits:sum 0
scalar SwitchedLAN.switch.eth[2].mac txPausePkUnits:count 0
scalar SwitchedLAN.switch.eth[2].mac txPausePkUnits:sum 0
scalar SwitchedLAN.switch.eth[2].mac rxPkOk:count 978
scalar SwitchedLAN.switch.eth[2].mac rxPkOk:sum(packetBytes) 706326
scalar SwitchedLAN.switch.eth[2].mac txPk:count 3059
scalar SwitchedLAN.switch.eth[2].mac txPk:sum(packetBytes) 3888426
scalar SwitchedLAN.switch.eth[2].mac packetReceivedFromUpper:count 3059
scalar SwitchedLAN.switch.eth[2].mac packetReceivedFromUpper:sum(packetBytes) 3887534
scalar SwitchedLAN.switch.eth[2].mac passedUpPk:count 978
scalar SwitchedLAN.switch.eth[2].mac passedUpPk:sum(packetBytes) 706326
scalar SwitchedLAN.switch.eth[2].mac packetDropIncorrectlyReceived:count 0
scalar SwitchedLAN.switch.eth[2].mac packetDropIncorrectlyReceived:sum(packetBytes) 0
scalar SwitchedLAN.switch.eth[2].mac packetDropInterfaceDown:count 0
scalar SwitchedLAN.switch.eth[2].mac packetDropInterfaceDown:sum(packetBytes) 0
scalar SwitchedLAN.switch.eth[2].mac packetDropNotAddressedToUs:count 0
scalar SwitchedLAN.switch.eth[2].mac packetDropNotAddressedToUs:sum(packetBytes) 0
scalar SwitchedLAN.switch.eth[2] packetDropInterfaceDown:count 0
scalar SwitchedLAN.switch.eth[2] packetDropInterfaceDown:sum(packetBytes) 0
scalar SwitchedLAN.switch.eth[2] packetDropNoCarrier:count 0
scalar SwitchedLAN.switch.eth[2] packetDropNoCarrier:sum(packetBytes) 0
scalar SwitchedLAN.switch.eth[3].queue queueLength:last 0
scalar SwitchedLAN.switch.eth[3].queue queueLength:max 1
scalar SwitchedLAN.switch.eth[3].queue queueLength:timeavg 5.5629920000000036e-05
scalar SwitchedLAN.switch.eth[3].queue queueBitLength:last 0
scalar SwitchedLAN.switch.eth[3].queue queueBitLength:max 12120
scalar SwitchedLAN.switch.eth[3].queue queueBitLength:timeavg 0.21435971456000003
scalar SwitchedLAN.switch.eth[3].queue outgoingPackets:count 3186
scalar SwitchedLAN.switch.eth[3].queue outgoingPacketLengths:sum 32196432
scalar SwitchedLAN.switch.eth[3].queue incomingPackets:count 3186
scalar SwitchedLAN.switch.eth[3].queue incomingPacketLengths:sum 32196432
scalar SwitchedLAN.switch.eth[3].queue droppedPacketsQueueOverflow:count 0
scalar SwitchedLAN.switch.eth[3].queue droppedPacketLengthsQueueOverflow:sum 0
scalar SwitchedLAN.switch.eth[3].mac "simulated time" 1000
scalar SwitchedLAN.switch.eth[3].mac full-duplex 1
scalar SwitchedLAN.switch.eth[3].mac "frames/sec sent" 3.1859999999999999
scalar SwitchedLAN.switch.eth[3].mac "frames/sec rcvd" 1.0049999999999999
scalar SwitchedLAN.switch.eth[3].mac "bits/sec sent" 32201.216
scalar SwitchedLAN.switch.eth[3].mac "bits/sec rcvd" 6096.7359999999999
scalar SwitchedLAN.switch.eth[3].mac "rx channel idle (%)" 99.993838944000004
scalar SwitchedLAN.switch.eth[3].mac "rx channel utilization (%)" 0.0061610559999999998
scalar SwitchedLAN.switch.eth[3].mac rxPausePkUnits:count 0
scalar SwitchedLAN.switch.eth[3].mac rxPausePkUnits:sum 0
scalar SwitchedLAN.switch.eth[3].mac txPausePkUnits:count 0
scalar SwitchedLAN.switch.eth[3].mac txPausePkUnits:sum 0
scalar SwitchedLAN.switch.eth[3].mac rxPkOk:count 1005
scalar SwitchedLAN.switch.eth[3].mac rxPkOk:sum(packetBytes) 762092
scalar SwitchedLAN.switch.eth[3].mac txPk:count 3186
scalar SwitchedLAN.switch.eth[3].mac txPk:sum(packetBytes) 4025152
scalar SwitchedLAN.switch.eth[3].mac packetReceivedFromUpper:count 3186
scalar SwitchedLAN.switch.eth[3].mac packetReceivedFromUpper:sum(packetBytes) 4024554
scalar SwitchedLAN.switch.eth[3].mac passedUpPk:count 1005
scalar SwitchedLAN.switch.eth[3].mac passedUpPk:sum(packetBytes) 762092
scalar SwitchedLAN.switch.eth[3].mac packetDropIncorrectlyReceived:count 0
scalar SwitchedLAN.switch.eth[3].mac packetDropIncorrectlyReceived:sum(packetBytes) 0
scalar SwitchedLAN.switch.eth[3].mac packetDropInterfaceDown:count 0
scalar SwitchedLAN.switch.eth[3].mac packetDropInterfaceDown:sum(packetBytes) 0
scalar SwitchedLAN.switch.eth[3].mac packetDropNotAddressedToUs:count 0
scalar SwitchedLAN.switch.eth[3].mac packetDropNotAddressedToUs:sum(packetBytes) 0
scalar SwitchedLAN.switch.eth[3] packetDropInterfaceDown:count 0
scalar SwitchedLAN.switch.eth[3] packetDropInterfaceDown:sum(packetBytes) 0
scalar SwitchedLAN.switch.eth[3] packetDropNoCarrier:count 0
scalar SwitchedLAN.switch.eth[3] packetDropNoCarrier:sum(packetBytes) 0
scalar SwitchedLAN.hostA.cli endToEndDelay:histogram:count 0
scalar SwitchedLAN.hostA.cli endToEndDelay:histogram:sumweights 0
scalar SwitchedLAN.hostA.cli endToEndDelay:histogram:mean -nan
scalar SwitchedLAN.hostA.cli endToEndDelay:histogram:stddev nan
scalar SwitchedLAN.hostA.cli endToEndDelay:histogram:min nan
scalar SwitchedLAN.hostA.cli endToEndDelay:histogram:max nan
scalar SwitchedLAN.hostA.cli endToEndDelay:histogram:numbins 1
scalar SwitchedLAN.hostA.cli endToEndDelay:histogram:rangemin 0
scalar SwitchedLAN.hostA.cli endToEndDelay:histogram:rangemax 1
scalar SwitchedLAN.hostA.cli endToEndDelay:histogram:underflows 0
scalar SwitchedLAN.hostA.cli endToEndDelay:histogram:overflows 0
scalar SwitchedLAN.hostA.srv endToEndDelay:histogram:count 3025
scalar SwitchedLAN.hostA.srv endToEndDelay:histogram:sumweights 3025
scalar SwitchedLAN.hostA.srv endToEndDelay:histogram:mean 0.00011981192727272717
scalar SwitchedLAN.hostA.srv endToEndDelay:histogram:stddev 6.3375376750975505e-05
scalar SwitchedLAN.hostA.srv endToEndDelay:histogram:min 1.2839999999999999e-05
scalar SwitchedLAN.hostA.srv endToEndDelay:histogram:max 0.00022883999999999998
scalar SwitchedLAN.hostA.srv endToEndDelay:histogram:numbins 56
scalar SwitchedLAN.hostA.srv endToEndDelay:histogram:rangemin 0
scalar SwitchedLAN.hostA.srv endToEndDelay:histogram:rangemax 0.00028000000000000008
scalar SwitchedLAN.hostA.srv endToEndDelay:histogram:underflows 0
scalar SwitchedLAN.hostA.srv endToEndDelay:histogram:overflows 0
scalar SwitchedLAN.hostA.eth.queue queueingTime:histogram:count 9499
scalar SwitchedLAN.hostA.eth.queue queueingTime:histogram:sumweights 9499
scalar SwitchedLAN.hostA.eth.queue queueingTime:histogram:mean 0.00018151513070428774
scalar SwitchedLAN.hostA.eth.queue queueingTime:histogram:stddev 0.00017901579473203713
scalar SwitchedLAN.hostA.eth.queue queueingTime:histogram:min 0
scalar SwitchedLAN.hostA.eth.queue queueingTime:histogram:max 0.0011073599999999999
scalar SwitchedLAN.hostA.eth.queue queueingTime:histogram:numbins 56
scalar SwitchedLAN.hostA.eth.queue queueingTime:histogram:rangemin 0
scalar SwitchedLAN.hostA.eth.queue queueingTime:histogram:rangemax 0.0011200000000000003
scalar SwitchedLAN.hostA.eth.queue queueingTime:histogram:underflows 0
scalar SwitchedLAN.hostA.eth.queue queueingTime:histogram:overflows 0
scalar SwitchedLAN.hostA.eth.queue outgoingPacketLengths:histogram:count 9499
scalar SwitchedLAN.hostA.eth.queue outgoingPacketLengths:histogram:sumweights 9499
scalar SwitchedLAN.hostA.eth.queue outgoingPacketLengths:histogram:mean 10142.581745446889
scalar SwitchedLAN.hostA.eth.queue outgoingPacketLengths:histogram:stddev 3522.3022940920273
scalar SwitchedLAN.hostA.eth.queue outgoingPacketLengths:histogram:min 176
scalar SwitchedLAN.hostA.eth.queue outgoingPacketLengths:histogram:max 12144
scalar SwitchedLAN.hostA.eth.queue outgoingPacketLengths:histogram:numbins 75
scalar SwitchedLAN.hostA.eth.queue outgoingPacketLengths:histogram:rangemin 0
scalar SwitchedLAN.hostA.eth.queue outgoingPacketLengths:histogram:rangemax 15000
scalar SwitchedLAN.hostA.eth.queue outgoingPacketLengths:histogram:underflows 0
scalar SwitchedLAN.hostA.eth.queue outgoingPacketLengths:histogram:overflows 0
scalar SwitchedLAN.hostA.eth.queue flowQueueingTime:histogram:count 0
scalar SwitchedLAN.hostA.eth.queue flowQueueingTime:histogram:sumweights 0
scalar SwitchedLAN.hostA.eth.queue flowQueueingTime:histogram:mean -nan
scalar SwitchedLAN.hostA.eth.queue flowQueueingTime:histogram:stddev nan
scalar SwitchedLAN.hostA.eth.queue flowQueueingTime:histogram:min nan
scalar SwitchedLAN.hostA.eth.queue flowQueueingTime:histogram:max nan
scalar SwitchedLAN.hostA.eth.queue flowQueueingTime:histogram:numbins 1
scalar SwitchedLAN.hostA.eth.queue flowQueueingTime:histogram:rangemin 0
scalar SwitchedLAN.hostA.eth.queue flowQueueingTime:histogram:rangemax 1
scalar SwitchedLAN.hostA.eth.queue flowQueueingTime:histogram:underflows 0
scalar SwitchedLAN.hostA.eth.queue flowQueueingTime:histogram:overflows 0
scalar SwitchedLAN.hostA.eth.queue incomingPacketLengths:histogram:count 9499
scalar SwitchedLAN.hostA.eth.queue incomingPacketLengths:histogram:sumweights 9499
scalar SwitchedLAN.hostA.eth.queue incomingPacketLengths:histogram:mean 10142.581745446889
scalar SwitchedLAN.hostA.eth.queue incomingPacketLengths:histogram:stddev 3522.3022940920273
scalar SwitchedLAN.hostA.eth.queue incomingPacketLengths:histogram:min 176
scalar SwitchedLAN.hostA.eth.queue incomingPacketLengths:histogram:max 12144
scalar SwitchedLAN.hostA.eth.queue incomingPacketLengths:histogram:numbins 75
scalar SwitchedLAN.hostA.eth.queue incomingPacketLengths:histogram:rangemin 0
scalar SwitchedLAN.hostA.eth.queue incomingPacketLengths:histogram:rangemax 15000
scalar SwitchedLAN.hostA.eth.queue incomingPacketLengths:histogram:underflows 0
scalar SwitchedLAN.hostA.eth.queue incomingPacketLengths:histogram:overflows 0
scalar SwitchedLAN.hostA.eth.mac throughput:histogram:count 10000
scalar SwitchedLAN.hostA.eth.mac throughput:histogram:sumweights 10000
scalar SwitchedLAN.hostA.eth.mac throughput:histogram:mean 96970.168000000005
scalar SwitchedLAN.hostA.eth.mac throughput:histogram:stddev 207168.13912047006
scalar SwitchedLAN.hostA.eth.mac throughput:histogram:min 0
scalar SwitchedLAN.hostA.eth.mac throughput:histogram:max 1851760.0000000002
scalar SwitchedLAN.hostA.eth.mac throughput:histogram:numbins 47
scalar SwitchedLAN.hostA.eth.mac throughput:histogram:rangemin 0
scalar SwitchedLAN.hostA.eth.mac throughput:histogram:rangemax 1880000
scalar SwitchedLAN.hostA.eth.mac throughput:histogram:underflows 0
scalar SwitchedLAN.hostA.eth.mac throughput:histogram:overflows 0
scalar SwitchedLAN.hostA.eth.mac utilization:histogram:count 10000
scalar SwitchedLAN.hostA.eth.mac utilization:histogram:sumweights 10000
scalar SwitchedLAN.hostA.eth.mac utilization:histogram:mean 0.096970167999999829
scalar SwitchedLAN.hostA.eth.mac utilization:histogram:stddev 0.20712949538838768
scalar SwitchedLAN.hostA.eth.mac utilization:histogram:min 0
scalar SwitchedLAN.hostA.eth.mac utilization:histogram:max 1.851760000000001
scalar SwitchedLAN.hostA.eth.mac utilization:histogram:numbins 47
scalar SwitchedLAN.hostA.eth.mac utilization:histogram:rangemin 0
scalar SwitchedLAN.hostA.eth.mac utilization:histogram:rangemax 1.8800000000000003
scalar SwitchedLAN.hostA.eth.mac utilization:histogram:underflows 0
scalar SwitchedLAN.hostA.eth.mac utilization:histogram:overflows 0
scalar SwitchedLAN.hostB.cli endToEndDelay:histogram:count 3256
scalar SwitchedLAN.hostB.cli endToEndDelay:histogram:sumweights 3256
scalar SwitchedLAN.hostB.cli endToEndDelay:histogram:mean 0.00040430690578317709
scalar SwitchedLAN.hostB.cli endToEndDelay:histogram:stddev 0.00018004176103426795
scalar SwitchedLAN.hostB.cli endToEndDelay:histogram:min 1.172e-05
scalar SwitchedLAN.hostB.cli endToEndDelay:histogram:max 0.00125012
scalar SwitchedLAN.hostB.cli endToEndDelay:histogram:numbins 67
scalar SwitchedLAN.hostB.cli endToEndDelay:histogram:rangemin 0
scalar SwitchedLAN.hostB.cli endToEndDelay:histogram:rangemax 0.00134
scalar SwitchedLAN.hostB.cli endToEndDelay:histogram:underflows 0
scalar SwitchedLAN.hostB.cli endToEndDelay:histogram:overflows 0
scalar SwitchedLAN.hostB.srv endToEndDelay:histogram:count 0
scalar SwitchedLAN.hostB.srv endToEndDelay:histogram:sumweights 0
scalar SwitchedLAN.hostB.srv endToEndDelay:histogram:mean -nan
scalar SwitchedLAN.hostB.srv endToEndDelay:histogram:stddev nan
scalar SwitchedLAN.hostB.srv endToEndDelay:histogram:min nan
scalar SwitchedLAN.hostB.srv endToEndDelay:histogram:max nan
scalar SwitchedLAN.hostB.srv endToEndDelay:histogram:numbins 1
scalar SwitchedLAN.hostB.srv endToEndDelay:histogram:rangemin 0
scalar SwitchedLAN.hostB.srv endToEndDelay:histogram:rangemax 1
scalar SwitchedLAN.hostB.srv endToEndDelay:histogram:underflows 0
scalar SwitchedLAN.hostB.srv endToEndDelay:histogram:overflows 0
scalar SwitchedLAN.hostB.eth.queue queueingTime:histogram:count 1042
scalar SwitchedLAN.hostB.eth.queue queueingTime:histogram:sumweights 1042
scalar SwitchedLAN.hostB.eth.queue queueingTime:histogram:mean 0
scalar SwitchedLAN.hostB.eth.queue queueingTime:histogram:stddev 0
scalar SwitchedLAN.hostB.eth.queue queueingTime:histogram:min 0
scalar SwitchedLAN.hostB.eth.queue queueingTime:histogram:max 0
scalar SwitchedLAN.hostB.eth.queue queueingTime:histogram:numbins 50
scalar SwitchedLAN.hostB.eth.queue queueingTime:histogram:rangemin -0.5
scalar SwitchedLAN.hostB.eth.queue queueingTime:histogram:rangemax 0.5
scalar SwitchedLAN.hostB.eth.queue queueingTime:histogram:underflows 0
scalar SwitchedLAN.hostB.eth.queue queueingTime:histogram:overflows 0
scalar SwitchedLAN.hostB.eth.queue outgoingPacketLengths:histogram:count 1042
scalar SwitchedLAN.hostB.eth.queue outgoingPacketLengths:histogram:sumweights 1042
scalar SwitchedLAN.hostB.eth.queue outgoingPacketLengths:histogram:mean 5902.4568138195773
scalar SwitchedLAN.hostB.eth.queue outgoingPacketLengths:histogram:stddev 3154.3136203491708
scalar SwitchedLAN.hostB.eth.queue outgoingPacketLengths:histogram:min 568
scalar SwitchedLAN.hostB.eth.queue outgoingPacketLengths:histogram:max 11360
scalar SwitchedLAN.hostB.eth.queue outgoingPacketLengths:histogram:numbins 71
scalar SwitchedLAN.hostB.eth.queue outgoingPacketLengths:histogram:rangemin 0
scalar SwitchedLAN.hostB.eth.queue outgoingPacketLengths:histogram:rangemax 14200
scalar SwitchedLAN.hostB.eth.queue outgoingPacketLengths:histogram:underflows 0
scalar SwitchedLAN.hostB.eth.queue outgoingPacketLengths:histogram:overflows 0
scalar SwitchedLAN.hostB.eth.queue flowQueueingTime:histogram:count 0
scalar SwitchedLAN.hostB.eth.queue flowQueueingTime:histogram:sumweights 0
scalar SwitchedLAN.hostB.eth.queue flowQueueingTime:histogram:mean -nan
scalar SwitchedLAN.hostB.eth.queue flowQueueingTime:histogram:stddev nan
scalar SwitchedLAN.hostB.eth.queue flowQueueingTime:histogram:min nan
scalar SwitchedLAN.hostB.eth.queue flowQueueingTime:histogram:max nan
scalar SwitchedLAN.hostB.eth.queue flowQueueingTime:histogram:numbins 1
scalar SwitchedLAN.hostB.eth.queue flowQueueingTime:histogram:rangemin 0
scalar SwitchedLAN.hostB.eth.queue flowQueueingTime:histogram:rangemax 1
scalar SwitchedLAN.hostB.eth.queue flowQueueingTime:histogram:underflows 0
scalar SwitchedLAN.hostB.eth.queue flowQueueingTime:histogram:overflows 0
scalar SwitchedLAN.hostB.eth.queue incomingPacketLengths:histogram:count 1042
scalar SwitchedLAN.hostB.eth.queue incomingPacketLengths:histogram:sumweights 1042
scalar SwitchedLAN.hostB.eth.queue incomingPacketLengths:histogram:mean 5902.4568138195773
scalar SwitchedLAN.hostB.eth.queue incomingPacketLengths:histogram:stddev 3154.3136203491708
scalar SwitchedLAN.hostB.eth.queue incomingPacketLengths:histogram:min 568
scalar SwitchedLAN.hostB.eth.queue incomingPacketLengths:histogram:max 11360
scalar SwitchedLAN.hostB.eth.queue incomingPacketLengths:histogram:numbins 71
scalar SwitchedLAN.hostB.eth.queue incomingPacketLengths:histogram:rangemin 0
scalar SwitchedLAN.hostB.eth.queue incomingPacketLengths:histogram:rangemax 14200
scalar SwitchedLAN.hostB.eth.queue incomingPacketLengths:histogram:underflows 0
scalar SwitchedLAN.hostB.eth.queue incomingPacketLengths:histogram:overflows 0
scalar SwitchedLAN.hostB.eth.mac throughput:histogram:count 10000
scalar SwitchedLAN.hostB.eth.mac throughput:histogram:sumweights 10000
scalar SwitchedLAN.hostB.eth.mac throughput:histogram:mean 6217.0479999999998
scalar SwitchedLAN.hostB.eth.mac throughput:histogram:stddev 21713.594881225046
scalar SwitchedLAN.hostB.eth.mac throughput:histogram:min 0
scalar SwitchedLAN.hostB.eth.mac throughput:histogram:max 197600.00000000003
scalar SwitchedLAN.hostB.eth.mac throughput:histogram:numbins 50
scalar SwitchedLAN.hostB.eth.mac throughput:histogram:rangemin 0
scalar SwitchedLAN.hostB.eth.mac throughput:histogram:rangemax 200000
scalar SwitchedLAN.hostB.eth.mac throughput:histogram:underflows 0
scalar SwitchedLAN.hostB.eth.mac throughput:histogram:overflows 0
scalar SwitchedLAN.hostB.eth.mac utilization:histogram:count 10000
scalar SwitchedLAN.hostB.eth.mac utilization:histogram:sumweights 10000
scalar SwitchedLAN.hostB.eth.mac utilization:histogram:mean 0.0062170480000000002
scalar SwitchedLAN.hostB.eth.mac utilization:histogram:stddev 0.021709586982453226
scalar SwitchedLAN.hostB.eth.mac utilization:histogram:min 0
scalar SwitchedLAN.hostB.eth.mac utilization:histogram:max 0.19760000000000003
scalar SwitchedLAN.hostB.eth.mac utilization:histogram:numbins 50
scalar SwitchedLAN.hostB.eth.mac utilization:histogram:rangemin 0
scalar SwitchedLAN.hostB.eth.mac utilization:histogram:rangemax 0.20000000000000001
scalar SwitchedLAN.hostB.eth.mac utilization:histogram:underflows 0
scalar SwitchedLAN.hostB.eth.mac utilization:histogram:overflows 0
scalar SwitchedLAN.hostC.cli endToEndDelay:histogram:count 3058
scalar SwitchedLAN.hostC.cli endToEndDelay:histogram:sumweights 3058
scalar SwitchedLAN.hostC.cli endToEndDelay:histogram:mean 0.00040051371528123633
scalar SwitchedLAN.hostC.cli endToEndDelay:histogram:stddev 0.0001725666453881228
scalar SwitchedLAN.hostC.cli endToEndDelay:histogram:min 1.172e-05
scalar SwitchedLAN.hostC.cli endToEndDelay:histogram:max 0.0010866000000000001
scalar SwitchedLAN.hostC.cli endToEndDelay:histogram:numbins 55
scalar SwitchedLAN.hostC.cli endToEndDelay:histogram:rangemin 0
scalar SwitchedLAN.hostC.cli endToEndDelay:histogram:rangemax 0.0011000000000000001
scalar SwitchedLAN.hostC.cli endToEndDelay:histogram:underflows 0
scalar SwitchedLAN.hostC.cli endToEndDelay:histogram:overflows 0
scalar SwitchedLAN.hostC.srv endToEndDelay:histogram:count 0
scalar SwitchedLAN.hostC.srv endToEndDelay:histogram:sumweights 0
scalar SwitchedLAN.hostC.srv endToEndDelay:histogram:mean -nan
scalar SwitchedLAN.hostC.srv endToEndDelay:histogram:stddev nan
scalar SwitchedLAN.hostC.srv endToEndDelay:histogram:min nan
scalar SwitchedLAN.hostC.srv endToEndDelay:histogram:max nan
scalar SwitchedLAN.hostC.srv endToEndDelay:histogram:numbins 1
scalar SwitchedLAN.hostC.srv endToEndDelay:histogram:rangemin 0
scalar SwitchedLAN.hostC.srv endToEndDelay:histogram:rangemax 1
scalar SwitchedLAN.hostC.srv endToEndDelay:histogram:underflows 0
scalar SwitchedLAN.hostC.srv endToEndDelay:histogram:overflows 0
scalar SwitchedLAN.hostC.eth.queue queueingTime:histogram:count 978
scalar SwitchedLAN.hostC.eth.queue queueingTime:histogram:sumweights 978
scalar SwitchedLAN.hostC.eth.queue queueingTime:histogram:mean 0
scalar SwitchedLAN.hostC.eth.queue queueingTime:histogram:stddev 0
scalar SwitchedLAN.hostC.eth.queue queueingTime:histogram:min 0
scalar SwitchedLAN.hostC.eth.queue queueingTime:histogram:max 0
scalar SwitchedLAN.hostC.eth.queue queueingTime:histogram:numbins 50
scalar SwitchedLAN.hostC.eth.queue queueingTime:histogram:rangemin -0.5
scalar SwitchedLAN.hostC.eth.queue queueingTime:histogram:rangemax 0.5
scalar SwitchedLAN.hostC.eth.queue queueingTime:histogram:underflows 0
scalar SwitchedLAN.hostC.eth.queue queueingTime:histogram:overflows 0
scalar SwitchedLAN.hostC.eth.queue outgoingPacketLengths:histogram:count 978
scalar SwitchedLAN.hostC.eth.queue outgoingPacketLengths:histogram:sumweights 978
scalar SwitchedLAN.hostC.eth.queue outgoingPacketLengths:histogram:mean 5777.7177914110425
scalar SwitchedLAN.hostC.eth.queue outgoingPacketLengths:histogram:stddev 3149.483462077897
scalar SwitchedLAN.hostC.eth.queue outgoingPacketLengths:histogram:min 592
scalar SwitchedLAN.hostC.eth.queue outgoingPacketLengths:histogram:max 11368
scalar SwitchedLAN.hostC.eth.queue outgoingPacketLengths:histogram:numbins 70
scalar SwitchedLAN.hostC.eth.queue outgoingPacketLengths:histogram:rangemin 0
scalar SwitchedLAN.hostC.eth.queue outgoingPacketLengths:histogram:rangemax 14000
scalar SwitchedLAN.hostC.eth.queue outgoingPacketLengths:histogram:underflows 0
scalar SwitchedLAN.hostC.eth.queue outgoingPacketLengths:histogram:overflows 0
scalar SwitchedLAN.hostC.eth.queue flowQueueingTime:histogram:count 0
scalar SwitchedLAN.hostC.eth.queue flowQueueingTime:histogram:sumweights 0
scalar SwitchedLAN.hostC.eth.queue flowQueueingTime:histogram:mean -nan
scalar SwitchedLAN.hostC.eth.queue flowQueueingTime:histogram:stddev nan
scalar SwitchedLAN.hostC.eth.queue flowQueueingTime:histogram:min nan
scalar SwitchedLAN.hostC.eth.queue flowQueueingTime:histogram:max nan
scalar SwitchedLAN.hostC.eth.queue flowQueueingTime:histogram:numbins 1
scalar SwitchedLAN.hostC.eth.queue flowQueueingTime:histogram:rangemin 0
scalar SwitchedLAN.hostC.eth.queue flowQueueingTime:histogram:rangemax 1
scalar SwitchedLAN.hostC.eth.queue flowQueueingTime:histogram:underflows 0
scalar SwitchedLAN.hostC.eth.queue flowQueueingTime:histogram:overflows 0
scalar SwitchedLAN.hostC.eth.queue incomingPacketLengths:histogram:count 978
scalar SwitchedLAN.hostC.eth.queue incomingPacketLengths:histogram:sumweights 978
scalar SwitchedLAN.hostC.eth.queue incomingPacketLengths:histogram:mean 5777.7177914110425
scalar SwitchedLAN.hostC.eth.queue incomingPacketLengths:histogram:stddev 3149.483462077897
scalar SwitchedLAN.hostC.eth.queue incomingPacketLengths:histogram:min 592
scalar SwitchedLAN.hostC.eth.queue incomingPacketLengths:histogram:max 11368
scalar SwitchedLAN.hostC.eth.queue incomingPacketLengths:histogram:numbins 70
scalar SwitchedLAN.hostC.eth.queue incomingPacketLengths:histogram:rangemin 0
scalar SwitchedLAN.hostC.eth.queue incomingPacketLengths:histogram:rangemax 14000
scalar SwitchedLAN.hostC.eth.queue incomingPacketLengths:histogram:underflows 0
scalar SwitchedLAN.hostC.eth.queue incomingPacketLengths:histogram:overflows 0
scalar SwitchedLAN.hostC.eth.mac throughput:histogram:count 10000
scalar SwitchedLAN.hostC.eth.mac throughput:histogram:sumweights 10000
scalar SwitchedLAN.hostC.eth.mac throughput:histogram:mean 5713.1999999999998
scalar SwitchedLAN.hostC.eth.mac throughput:histogram:stddev 20913.352221729423
scalar SwitchedLAN.hostC.eth.mac throughput:histogram:min 0
scalar SwitchedLAN.hostC.eth.mac throughput:histogram:max 210080.00000000003
scalar SwitchedLAN.hostC.eth.mac throughput:histogram:numbins 53
scalar SwitchedLAN.hostC.eth.mac throughput:histogram:rangemin 0
scalar SwitchedLAN.hostC.eth.mac throughput:histogram:rangemax 212000
scalar SwitchedLAN.hostC.eth.mac throughput:histogram:underflows 0
scalar SwitchedLAN.hostC.eth.mac throughput:histogram:overflows 0
scalar SwitchedLAN.hostC.eth.mac utilization:histogram:count 10000
scalar SwitchedLAN.hostC.eth.mac utilization:histogram:sumweights 10000
scalar SwitchedLAN.hostC.eth.mac utilization:histogram:mean 0.0057132000000000016
scalar SwitchedLAN.hostC.eth.mac utilization:histogram:stddev 0.020910552438969485
scalar SwitchedLAN.hostC.eth.mac utilization:histogram:min 0
scalar SwitchedLAN.hostC.eth.mac utilization:histogram:max 0.21008000000000004
scalar SwitchedLAN.hostC.eth.mac utilization:histogram:numbins 53
scalar SwitchedLAN.hostC.eth.mac utilization:histogram:rangemin 0
scalar SwitchedLAN.hostC.eth.mac utilization:histogram:rangemax 0.21200000000000002
scalar SwitchedLAN.hostC.eth.mac utilization:histogram:underflows 0
scalar SwitchedLAN.hostC.eth.mac utilization:histogram:overflows 0
scalar SwitchedLAN.hostD.cli endToEndDelay:histogram:count 3185
scalar SwitchedLAN.hostD.cli endToEndDelay:histogram:sumweights 3185
scalar SwitchedLAN.hostD.cli endToEndDelay:histogram:mean 0.00040386980219780894
scalar SwitchedLAN.hostD.cli endToEndDelay:histogram:stddev 0.00017655611665452859
scalar SwitchedLAN.hostD.cli endToEndDelay:histogram:min 1.172e-05
scalar SwitchedLAN.hostD.cli endToEndDelay:histogram:max 0.001129
scalar SwitchedLAN.hostD.cli endToEndDelay:histogram:numbins 57
scalar SwitchedLAN.hostD.cli endToEndDelay:histogram:rangemin 0
scalar SwitchedLAN.hostD.cli endToEndDelay:histogram:rangemax 0.0011400000000000002
scalar SwitchedLAN.hostD.cli endToEndDelay:histogram:underflows 0
scalar SwitchedLAN.hostD.cli endToEndDelay:histogram:overflows 0
scalar SwitchedLAN.hostD.srv endToEndDelay:histogram:count 0
scalar SwitchedLAN.hostD.srv endToEndDelay:histogram:sumweights 0
scalar SwitchedLAN.hostD.srv endToEndDelay:histogram:mean -nan
scalar SwitchedLAN.hostD.srv endToEndDelay:histogram:stddev nan
scalar SwitchedLAN.hostD.srv endToEndDelay:histogram:min nan
scalar SwitchedLAN.hostD.srv endToEndDelay:histogram:max nan
scalar SwitchedLAN.hostD.srv endToEndDelay:histogram:numbins 1
scalar SwitchedLAN.hostD.srv endToEndDelay:histogram:rangemin 0
scalar SwitchedLAN.hostD.srv endToEndDelay:histogram:rangemax 1
scalar SwitchedLAN.hostD.srv endToEndDelay:histogram:underflows 0
scalar SwitchedLAN.hostD.srv endToEndDelay:histogram:overflows 0
scalar SwitchedLAN.hostD.eth.queue queueingTime:histogram:count 1005
scalar SwitchedLAN.hostD.eth.queue queueingTime:histogram:sumweights 1005
scalar SwitchedLAN.hostD.eth.queue queueingTime:histogram:mean 0
scalar SwitchedLAN.hostD.eth.queue queueingTime:histogram:stddev 0
scalar SwitchedLAN.hostD.eth.queue queueingTime:histogram:min 0
scalar SwitchedLAN.hostD.eth.queue queueingTime:histogram:max 0
scalar SwitchedLAN.hostD.eth.queue queueingTime:histogram:numbins 50
scalar SwitchedLAN.hostD.eth.queue queueingTime:histogram:rangemin -0.5
scalar SwitchedLAN.hostD.eth.queue queueingTime:histogram:rangemax 0.5
scalar SwitchedLAN.hostD.eth.queue queueingTime:histogram:underflows 0
scalar SwitchedLAN.hostD.eth.queue queueingTime:histogram:overflows 0
scalar SwitchedLAN.hostD.eth.queue outgoingPacketLengths:histogram:count 1005
scalar SwitchedLAN.hostD.eth.queue outgoingPacketLengths:histogram:sumweights 1005
scalar SwitchedLAN.hostD.eth.queue outgoingPacketLengths:histogram:mean 6066.4039800995024
scalar SwitchedLAN.hostD.eth.queue outgoingPacketLengths:histogram:stddev 3198.9031113058099
scalar SwitchedLAN.hostD.eth.queue outgoingPacketLengths:histogram:min 568
scalar SwitchedLAN.hostD.eth.queue outgoingPacketLengths:histogram:max 11368
scalar SwitchedLAN.hostD.eth.queue outgoingPacketLengths:histogram:numbins 71
scalar SwitchedLAN.hostD.eth.queue outgoingPacketLengths:histogram:rangemin 0
scalar SwitchedLAN.hostD.eth.queue outgoingPacketLengths:histogram:rangemax 14200
scalar SwitchedLAN.hostD.eth.queue outgoingPacketLengths:histogram:underflows 0
scalar SwitchedLAN.hostD.eth.queue outgoingPacketLengths:histogram:overflows 0
scalar SwitchedLAN.hostD.eth.queue flowQueueingTime:histogram:count 0
scalar SwitchedLAN.hostD.eth.queue flowQueueingTime:histogram:sumweights 0
scalar SwitchedLAN.hostD.eth.queue flowQueueingTime:histogram:mean -nan
scalar SwitchedLAN.hostD.eth.queue flowQueueingTime:histogram:stddev nan
scalar SwitchedLAN.hostD.eth.queue flowQueueingTime:histogram:min nan
scalar SwitchedLAN.hostD.eth.queue flowQueueingTime:histogram:max nan
scalar SwitchedLAN.hostD.eth.queue flowQueueingTime:histogram:numbins 1
scalar SwitchedLAN.hostD.eth.queue flowQueueingTime:histogram:rangemin 0
scalar SwitchedLAN.hostD.eth.queue flowQueueingTime:histogram:rangemax 1
scalar SwitchedLAN.hostD.eth.queue flowQueueingTime:histogram:underflows 0
scalar SwitchedLAN.hostD.eth.queue flowQueueingTime:histogram:overflows 0
scalar SwitchedLAN.hostD.eth.queue incomingPacketLengths:histogram:count 1005
scalar SwitchedLAN.hostD.eth.queue incomingPacketLengths:histogram:sumweights 1005
scalar SwitchedLAN.hostD.eth.queue incomingPacketLengths:histogram:mean 6066.4039800995024
scalar SwitchedLAN.hostD.eth.queue incomingPacketLengths:histogram:stddev 3198.9031113058099
scalar SwitchedLAN.hostD.eth.queue incomingPacketLengths:histogram:min 568
scalar SwitchedLAN.hostD.eth.queue incomingPacketLengths:histogram:max 11368
scalar SwitchedLAN.hostD.eth.queue incomingPacketLengths:histogram:numbins 71
scalar SwitchedLAN.hostD.eth.queue incomingPacketLengths:histogram:rangemin 0
scalar SwitchedLAN.hostD.eth.queue incomingPacketLengths:histogram:rangemax 14200
scalar SwitchedLAN.hostD.eth.queue incomingPacketLengths:histogram:underflows 0
scalar SwitchedLAN.hostD.eth.queue incomingPacketLengths:histogram:overflows 0
scalar SwitchedLAN.hostD.eth.mac throughput:histogram:count 10000
scalar SwitchedLAN.hostD.eth.mac throughput:histogram:sumweights 10000
scalar SwitchedLAN.hostD.eth.mac throughput:histogram:mean 6161.0559999999996
scalar SwitchedLAN.hostD.eth.mac throughput:histogram:stddev 22203.972575300042
scalar SwitchedLAN.hostD.eth.mac throughput:histogram:min 0
scalar SwitchedLAN.hostD.eth.mac throughput:histogram:max 216400.00000000003
scalar SwitchedLAN.hostD.eth.mac throughput:histogram:numbins 55
scalar SwitchedLAN.hostD.eth.mac throughput:histogram:rangemin 0
scalar SwitchedLAN.hostD.eth.mac throughput:histogram:rangemax 220000
scalar SwitchedLAN.hostD.eth.mac throughput:histogram:underflows 0
scalar SwitchedLAN.hostD.eth.mac throughput:histogram:overflows 0
scalar SwitchedLAN.hostD.eth.mac utilization:histogram:count 10000
scalar SwitchedLAN.hostD.eth.mac utilization:histogram:sumweights 10000
scalar SwitchedLAN.hostD.eth.mac utilization:histogram:mean 0.0061610559999999938
scalar SwitchedLAN.hostD.eth.mac utilization:histogram:stddev 0.02220397257530005
scalar SwitchedLAN.hostD.eth.mac utilization:histogram:min 0
scalar SwitchedLAN.hostD.eth.mac utilization:histogram:max 0.21640000000000001
scalar SwitchedLAN.hostD.eth.mac utilization:histogram:numbins 55
scalar SwitchedLAN.hostD.eth.mac utilization:histogram:rangemin 0
scalar SwitchedLAN.hostD.eth.mac utilization:histogram:rangemax 0.22000000000000003
scalar SwitchedLAN.hostD.eth.mac utilization:histogram:underflows 0
scalar SwitchedLAN.hostD.eth.mac utilization:histogram:overflows 0
scalar SwitchedLAN.switch.eth[0].queue queueingTime:histogram:count 3025
scalar SwitchedLAN.switch.eth[0].queue queueingTime:histogram:sumweights 3025
scalar SwitchedLAN.switch.eth[0].queue queueingTime:histogram:mean 0
scalar SwitchedLAN.switch.eth[0].queue queueingTime:histogram:stddev 0
scalar SwitchedLAN.switch.eth[0].queue queueingTime:histogram:min 0
scalar SwitchedLAN.switch.eth[0].queue queueingTime:histogram:max 0
scalar SwitchedLAN.switch.eth[0].queue queueingTime:histogram:numbins 50
scalar SwitchedLAN.switch.eth[0].queue queueingTime:histogram:rangemin -0.5
scalar SwitchedLAN.switch.eth[0].queue queueingTime:histogram:rangemax 0.5
scalar SwitchedLAN.switch.eth[0].queue queueingTime:histogram:underflows 0
scalar SwitchedLAN.switch.eth[0].queue queueingTime:histogram:overflows 0
scalar SwitchedLAN.switch.eth[0].queue outgoingPacketLengths:histogram:count 3025
scalar SwitchedLAN.switch.eth[0].queue outgoingPacketLengths:histogram:sumweights 3025
scalar SwitchedLAN.switch.eth[0].queue outgoingPacketLengths:histogram:mean 5916.596363636364
scalar SwitchedLAN.switch.eth[0].queue outgoingPacketLengths:histogram:stddev 3168.7688375487578
scalar SwitchedLAN.switch.eth[0].queue outgoingPacketLengths:histogram:min 568
scalar SwitchedLAN.switch.eth[0].queue outgoingPacketLengths:histogram:max 11368
scalar SwitchedLAN.switch.eth[0].queue outgoingPacketLengths:histogram:numbins 69
scalar SwitchedLAN.switch.eth[0].queue outgoingPacketLengths:histogram:rangemin 0
scalar SwitchedLAN.switch.eth[0].queue outgoingPacketLengths:histogram:rangemax 13800
scalar SwitchedLAN.switch.eth[0].queue outgoingPacketLengths:histogram:underflows 0
scalar SwitchedLAN.switch.eth[0].queue outgoingPacketLengths:histogram:overflows 0
scalar SwitchedLAN.switch.eth[0].queue flowQueueingTime:histogram:count 0
scalar SwitchedLAN.switch.eth[0].queue flowQueueingTime:histogram:sumweights 0
scalar SwitchedLAN.switch.eth[0].queue flowQueueingTime:histogram:mean -nan
scalar SwitchedLAN.switch.eth[0].queue flowQueueingTime:histogram:stddev nan
scalar SwitchedLAN.switch.eth[0].queue flowQueueingTime:histogram:min nan
scalar SwitchedLAN.switch.eth[0].queue flowQueueingTime:histogram:max nan
scalar SwitchedLAN.switch.eth[0].queue flowQueueingTime:histogram:numbins 1
scalar SwitchedLAN.switch.eth[0].queue flowQueueingTime:histogram:rangemin 0
scalar SwitchedLAN.switch.eth[0].queue flowQueueingTime:histogram:rangemax 1
scalar SwitchedLAN.switch.eth[0].queue flowQueueingTime:histogram:underflows 0
scalar SwitchedLAN.switch.eth[0].queue flowQueueingTime:histogram:overflows 0
scalar SwitchedLAN.switch.eth[0].queue incomingPacketLengths:histogram:count 3025
scalar SwitchedLAN.switch.eth[0].queue incomingPacketLengths:histogram:sumweights 3025
scalar SwitchedLAN.switch.eth[0].queue incomingPacketLengths:histogram:mean 5916.596363636364
scalar SwitchedLAN.switch.eth[0].queue incomingPacketLengths:histogram:stddev 3168.7688375487578
scalar SwitchedLAN.switch.eth[0].queue incomingPacketLengths:histogram:min 568
scalar SwitchedLAN.switch.eth[0].queue incomingPacketLengths:histogram:max 11368
scalar SwitchedLAN.switch.eth[0].queue incomingPacketLengths:histogram:numbins 69
scalar SwitchedLAN.switch.eth[0].queue incomingPacketLengths:histogram:rangemin 0
scalar SwitchedLAN.switch.eth[0].queue incomingPacketLengths:histogram:rangemax 13800
scalar SwitchedLAN.switch.eth[0].queue incomingPacketLengths:histogram:underflows 0
scalar SwitchedLAN.switch.eth[0].queue incomingPacketLengths:histogram:overflows 0
scalar SwitchedLAN.switch.eth[0].mac throughput:histogram:count 10000
scalar SwitchedLAN.switch.eth[0].mac throughput:histogram:sumweights 10000
scalar SwitchedLAN.switch.eth[0].mac throughput:histogram:mean 18091.304
scalar SwitchedLAN.switch.eth[0].mac throughput:histogram:stddev 37253.742027735832
scalar SwitchedLAN.switch.eth[0].mac throughput:histogram:min 0
scalar SwitchedLAN.switch.eth[0].mac throughput:histogram:max 307280
scalar SwitchedLAN.switch.eth[0].mac throughput:histogram:numbins 77
scalar SwitchedLAN.switch.eth[0].mac throughput:histogram:rangemin 0
scalar SwitchedLAN.switch.eth[0].mac throughput:histogram:rangemax 308000
scalar SwitchedLAN.switch.eth[0].mac throughput:histogram:underflows 0
scalar SwitchedLAN.switch.eth[0].mac throughput:histogram:overflows 0
scalar SwitchedLAN.switch.eth[0].mac utilization:histogram:count 10000
scalar SwitchedLAN.switch.eth[0].mac utilization:histogram:sumweights 10000
scalar SwitchedLAN.switch.eth[0].mac utilization:histogram:mean 0.018091304000000023
scalar SwitchedLAN.switch.eth[0].mac utilization:histogram:stddev 0.037250846641182916
scalar SwitchedLAN.switch.eth[0].mac utilization:histogram:min 0
scalar SwitchedLAN.switch.eth[0].mac utilization:histogram:max 0.30728
scalar SwitchedLAN.switch.eth[0].mac utilization:histogram:numbins 77
scalar SwitchedLAN.switch.eth[0].mac utilization:histogram:rangemin 0
scalar SwitchedLAN.switch.eth[0].mac utilization:histogram:rangemax 0.308
scalar SwitchedLAN.switch.eth[0].mac utilization:histogram:underflows 0
scalar SwitchedLAN.switch.eth[0].mac utilization:histogram:overflows 0
scalar SwitchedLAN.switch.eth[1].queue queueingTime:histogram:count 3256
scalar SwitchedLAN.switch.eth[1].queue queueingTime:histogram:sumweights 3256
scalar SwitchedLAN.switch.eth[1].queue queueingTime:histogram:mean 1.6777223587223587e-05
scalar SwitchedLAN.switch.eth[1].queue queueingTime:histogram:stddev 3.3046301852775727e-05
scalar SwitchedLAN.switch.eth[1].queue queueingTime:histogram:min 0
scalar SwitchedLAN.switch.eth[1].queue queueingTime:histogram:max 0.00011632
scalar SwitchedLAN.switch.eth[1].queue queueingTime:histogram:numbins 70
scalar SwitchedLAN.switch.eth[1].queue queueingTime:histogram:rangemin 0
scalar SwitchedLAN.switch.eth[1].queue queueingTime:histogram:rangemax 0.00014000000000000001
scalar SwitchedLAN.switch.eth[1].queue queueingTime:histogram:underflows 0
scalar SwitchedLAN.switch.eth[1].queue queueingTime:histogram:overflows 0
scalar SwitchedLAN.switch.eth[1].queue outgoingPacketLengths:histogram:count 3256
scalar SwitchedLAN.switch.eth[1].queue outgoingPacketLengths:histogram:sumweights 3256
scalar SwitchedLAN.switch.eth[1].queue outgoingPacketLengths:histogram:mean 10154.230958230959
scalar SwitchedLAN.switch.eth[1].queue outgoingPacketLengths:histogram:stddev 3503.2211320361316
scalar SwitchedLAN.switch.eth[1].queue outgoingPacketLengths:histogram:min 184
scalar SwitchedLAN.switch.eth[1].queue outgoingPacketLengths:histogram:max 12144
scalar SwitchedLAN.switch.eth[1].queue outgoingPacketLengths:histogram:numbins 75
scalar SwitchedLAN.switch.eth[1].queue outgoingPacketLengths:histogram:rangemin 0
scalar SwitchedLAN.switch.eth[1].queue outgoingPacketLengths:histogram:rangemax 15000
scalar SwitchedLAN.switch.eth[1].queue outgoingPacketLengths:histogram:underflows 0
scalar SwitchedLAN.switch.eth[1].queue outgoingPacketLengths:histogram:overflows 0
scalar SwitchedLAN.switch.eth[1].queue flowQueueingTime:histogram:count 0
scalar SwitchedLAN.switch.eth[1].queue flowQueueingTime:histogram:sumweights 0
scalar SwitchedLAN.switch.eth[1].queue flowQueueingTime:histogram:mean -nan
scalar SwitchedLAN.switch.eth[1].queue flowQueueingTime:histogram:stddev nan
scalar SwitchedLAN.switch.eth[1].queue flowQueueingTime:histogram:min nan
scalar SwitchedLAN.switch.eth[1].queue flowQueueingTime:histogram:max nan
scalar SwitchedLAN.switch.eth[1].queue flowQueueingTime:histogram:numbins 1
scalar SwitchedLAN.switch.eth[1].queue flowQueueingTime:histogram:rangemin 0
scalar SwitchedLAN.switch.eth[1].queue flowQueueingTime:histogram:rangemax 1
scalar SwitchedLAN.switch.eth[1].queue flowQueueingTime:histogram:underflows 0
scalar SwitchedLAN.switch.eth[1].queue flowQueueingTime:histogram:overflows 0
scalar SwitchedLAN.switch.eth[1].queue incomingPacketLengths:histogram:count 3256
scalar SwitchedLAN.switch.eth[1].queue incomingPacketLengths:histogram:sumweights 3256
scalar SwitchedLAN.switch.eth[1].queue incomingPacketLengths:histogram:mean 10154.230958230959
scalar SwitchedLAN.switch.eth[1].queue incomingPacketLengths:histogram:stddev 3503.2211320361316
scalar SwitchedLAN.switch.eth[1].queue incomingPacketLengths:histogram:min 184
scalar SwitchedLAN.switch.eth[1].queue incomingPacketLengths:histogram:max 12144
scalar SwitchedLAN.switch.eth[1].queue incomingPacketLengths:histogram:numbins 75
scalar SwitchedLAN.switch.eth[1].queue incomingPacketLengths:histogram:rangemin 0
scalar SwitchedLAN.switch.eth[1].queue incomingPacketLengths:histogram:rangemax 15000
scalar SwitchedLAN.switch.eth[1].queue incomingPacketLengths:histogram:underflows 0
scalar SwitchedLAN.switch.eth[1].queue incomingPacketLengths:histogram:overflows 0
scalar SwitchedLAN.switch.eth[1].mac throughput:histogram:count 10000
scalar SwitchedLAN.switch.eth[1].mac throughput:histogram:sumweights 10000
scalar SwitchedLAN.switch.eth[1].mac throughput:histogram:mean 33276.487999999998
scalar SwitchedLAN.switch.eth[1].mac throughput:histogram:stddev 121320.87101039181
scalar SwitchedLAN.switch.eth[1].mac throughput:histogram:min 0
scalar SwitchedLAN.switch.eth[1].mac throughput:histogram:max 1401040.0000000002
scalar SwitchedLAN.switch.eth[1].mac throughput:histogram:numbins 71
scalar SwitchedLAN.switch.eth[1].mac throughput:histogram:rangemin 0
scalar SwitchedLAN.switch.eth[1].mac throughput:histogram:rangemax 1420000
scalar SwitchedLAN.switch.eth[1].mac throughput:histogram:underflows 0
scalar SwitchedLAN.switch.eth[1].mac throughput:histogram:overflows 0
scalar SwitchedLAN.switch.eth[1].mac utilization:histogram:count 10000
scalar SwitchedLAN.switch.eth[1].mac utilization:histogram:sumweights 10000
scalar SwitchedLAN.switch.eth[1].mac utilization:histogram:mean 0.033276488000000021
scalar SwitchedLAN.switch.eth[1].mac utilization:histogram:stddev 0.12134108985893763
scalar SwitchedLAN.switch.eth[1].mac utilization:histogram:min 0
scalar SwitchedLAN.switch.eth[1].mac utilization:histogram:max 1.4010400000000003
scalar SwitchedLAN.switch.eth[1].mac utilization:histogram:numbins 71
scalar SwitchedLAN.switch.eth[1].mac utilization:histogram:rangemin 0
scalar SwitchedLAN.switch.eth[1].mac utilization:histogram:rangemax 1.4200000000000002
scalar SwitchedLAN.switch.eth[1].mac utilization:histogram:underflows 0
scalar SwitchedLAN.switch.eth[1].mac utilization:histogram:overflows 0
scalar SwitchedLAN.switch.eth[2].queue queueingTime:histogram:count 3059
scalar SwitchedLAN.switch.eth[2].queue queueingTime:histogram:sumweights 3059
scalar SwitchedLAN.switch.eth[2].queue queueingTime:histogram:mean 1.6916508662961766e-05
scalar SwitchedLAN.switch.eth[2].queue queueingTime:histogram:stddev 3.3281625611924497e-05
scalar SwitchedLAN.switch.eth[2].queue queueingTime:histogram:min 0
scalar SwitchedLAN.switch.eth[2].queue queueingTime:histogram:max 0.00011632
scalar SwitchedLAN.switch.eth[2].queue queueingTime:histogram:numbins 65
scalar SwitchedLAN.switch.eth[2].queue queueingTime:histogram:rangemin 0
scalar SwitchedLAN.switch.eth[2].queue queueingTime:histogram:rangemax 0.00013000000000000002
scalar SwitchedLAN.switch.eth[2].queue queueingTime:histogram:underflows 0
scalar SwitchedLAN.switch.eth[2].queue queueingTime:histogram:overflows 0
scalar SwitchedLAN.switch.eth[2].queue outgoingPacketLengths:histogram:count 3059
scalar SwitchedLAN.switch.eth[2].queue outgoingPacketLengths:histogram:sumweights 3059
scalar SwitchedLAN.switch.eth[2].queue outgoingPacketLengths:histogram:mean 10166.810068649886
scalar SwitchedLAN.switch.eth[2].queue outgoingPacketLengths:histogram:stddev 3502.9391208225388
scalar SwitchedLAN.switch.eth[2].queue outgoingPacketLengths:histogram:min 176
scalar SwitchedLAN.switch.eth[2].queue outgoingPacketLengths:histogram:max 12144
scalar SwitchedLAN.switch.eth[2].queue outgoingPacketLengths:histogram:numbins 76
scalar SwitchedLAN.switch.eth[2].queue outgoingPacketLengths:histogram:rangemin 0
scalar SwitchedLAN.switch.eth[2].queue outgoingPacketLengths:histogram:rangemax 15200
scalar SwitchedLAN.switch.eth[2].queue outgoingPacketLengths:histogram:underflows 0
scalar SwitchedLAN.switch.eth[2].queue outgoingPacketLengths:histogram:overflows 0
scalar SwitchedLAN.switch.eth[2].queue flowQueueingTime:histogram:count 0
scalar SwitchedLAN.switch.eth[2].queue flowQueueingTime:histogram:sumweights 0
scalar SwitchedLAN.switch.eth[2].queue flowQueueingTime:histogram:mean -nan
scalar SwitchedLAN.switch.eth[2].queue flowQueueingTime:histogram:stddev nan
scalar SwitchedLAN.switch.eth[2].queue flowQueueingTime:histogram:min nan
scalar SwitchedLAN.switch.eth[2].queue flowQueueingTime:histogram:max nan
scalar SwitchedLAN.switch.eth[2].queue flowQueueingTime:histogram:numbins 1
scalar SwitchedLAN.switch.eth[2].queue flowQueueingTime:histogram:rangemin 0
scalar SwitchedLAN.switch.eth[2].queue flowQueueingTime:histogram:rangemax 1
scalar SwitchedLAN.switch.eth[2].queue flowQueueingTime:histogram:underflows 0
scalar SwitchedLAN.switch.eth[2].queue flowQueueingTime:histogram:overflows 0
scalar SwitchedLAN.switch.eth[2].queue incomingPacketLengths:histogram:count 3059
scalar SwitchedLAN.switch.eth[2].queue incomingPacketLengths:histogram:sumweights 3059
scalar SwitchedLAN.switch.eth[2].queue incomingPacketLengths:histogram:mean 10166.810068649886
scalar SwitchedLAN.switch.eth[2].queue incomingPacketLengths:histogram:stddev 3502.9391208225388
scalar SwitchedLAN.switch.eth[2].queue incomingPacketLengths:histogram:min 176
scalar SwitchedLAN.switch.eth[2].queue incomingPacketLengths:histogram:max 12144
scalar SwitchedLAN.switch.eth[2].queue incomingPacketLengths:histogram:numbins 76
scalar SwitchedLAN.switch.eth[2].queue incomingPacketLengths:histogram:rangemin 0
scalar SwitchedLAN.switch.eth[2].queue incomingPacketLengths:histogram:rangemax 15200
scalar SwitchedLAN.switch.eth[2].queue incomingPacketLengths:histogram:underflows 0
scalar SwitchedLAN.switch.eth[2].queue incomingPacketLengths:histogram:overflows 0
scalar SwitchedLAN.switch.eth[2].mac throughput:histogram:count 10000
scalar SwitchedLAN.switch.eth[2].mac throughput:histogram:sumweights 10000
scalar SwitchedLAN.switch.eth[2].mac throughput:histogram:mean 31303.184000000001
scalar SwitchedLAN.switch.eth[2].mac throughput:histogram:stddev 116520.68349761092
scalar SwitchedLAN.switch.eth[2].mac throughput:histogram:min 0
scalar SwitchedLAN.switch.eth[2].mac throughput:histogram:max 1254400
scalar SwitchedLAN.switch.eth[2].mac throughput:histogram:numbins 63
scalar SwitchedLAN.switch.eth[2].mac throughput:histogram:rangemin 0
scalar SwitchedLAN.switch.eth[2].mac throughput:histogram:rangemax 1260000
scalar SwitchedLAN.switch.eth[2].mac throughput:histogram:underflows 0
scalar SwitchedLAN.switch.eth[2].mac throughput:histogram:overflows 0
scalar SwitchedLAN.switch.eth[2].mac utilization:histogram:count 10000
scalar SwitchedLAN.switch.eth[2].mac utilization:histogram:sumweights 10000
scalar SwitchedLAN.switch.eth[2].mac utilization:histogram:mean 0.031303184000000039
scalar SwitchedLAN.switch.eth[2].mac utilization:histogram:stddev 0.11647246088548568
scalar SwitchedLAN.switch.eth[2].mac utilization:histogram:min 0
scalar SwitchedLAN.switch.eth[2].mac utilization:histogram:max 1.2543999999999997
scalar SwitchedLAN.switch.eth[2].mac utilization:histogram:numbins 63
scalar SwitchedLAN.switch.eth[2].mac utilization:histogram:rangemin 0
scalar SwitchedLAN.switch.eth[2].mac utilization:histogram:rangemax 1.2600000000000002
scalar SwitchedLAN.switch.eth[2].mac utilization:histogram:underflows 0
scalar SwitchedLAN.switch.eth[2].mac utilization:histogram:overflows 0
scalar SwitchedLAN.switch.eth[3].queue queueingTime:histogram:count 3186
scalar SwitchedLAN.switch.eth[3].queue queueingTime:histogram:sumweights 3186
scalar SwitchedLAN.switch.eth[3].queue queueingTime:histogram:mean 1.7460740740740751e-05
scalar SwitchedLAN.switch.eth[3].queue queueingTime:histogram:stddev 3.3784243539541378e-05
scalar SwitchedLAN.switch.eth[3].queue queueingTime:histogram:min 0
scalar SwitchedLAN.switch.eth[3].queue queueingTime:histogram:max 0.00011632
scalar SwitchedLAN.switch.eth[3].queue queueingTime:histogram:numbins 71
scalar SwitchedLAN.switch.eth[3].queue queueingTime:histogram:rangemin 0
scalar SwitchedLAN.switch.eth[3].queue queueingTime:histogram:rangemax 0.00014200000000000004
scalar SwitchedLAN.switch.eth[3].queue queueingTime:histogram:underflows 0
scalar SwitchedLAN.switch.eth[3].queue queueingTime:histogram:overflows 0
scalar SwitchedLAN.switch.eth[3].queue outgoingPacketLengths:histogram:count 3186
scalar SwitchedLAN.switch.eth[3].queue outgoingPacketLengths:histogram:sumweights 3186
scalar SwitchedLAN.switch.eth[3].queue outgoingPacketLengths:histogram:mean 10105.596986817325
scalar SwitchedLAN.switch.eth[3].queue outgoingPacketLengths:histogram:stddev 3560.5353741039048
scalar SwitchedLAN.switch.eth[3].queue outgoingPacketLengths:histogram:min 176
scalar SwitchedLAN.switch.eth[3].queue outgoingPacketLengths:histogram:max 12144
scalar SwitchedLAN.switch.eth[3].queue outgoingPacketLengths:histogram:numbins 75
scalar SwitchedLAN.switch.eth[3].queue outgoingPacketLengths:histogram:rangemin 0
scalar SwitchedLAN.switch.eth[3].queue outgoingPacketLengths:histogram:rangemax 15000
scalar SwitchedLAN.switch.eth[3].queue outgoingPacketLengths:histogram:underflows 0
scalar SwitchedLAN.switch.eth[3].queue outgoingPacketLengths:histogram:overflows 0
scalar SwitchedLAN.switch.eth[3].queue flowQueueingTime:histogram:count 0
scalar SwitchedLAN.switch.eth[3].queue flowQueueingTime:histogram:sumweights 0
scalar SwitchedLAN.switch.eth[3].queue flowQueueingTime:histogram:mean -nan
scalar SwitchedLAN.switch.eth[3].queue flowQueueingTime:histogram:stddev nan
scalar SwitchedLAN.switch.eth[3].queue flowQueueingTime:histogram:min nan
scalar SwitchedLAN.switch.eth[3].queue flowQueueingTime:histogram:max nan
scalar SwitchedLAN.switch.eth[3].queue flowQueueingTime:histogram:numbins 1
scalar SwitchedLAN.switch.eth[3].queue flowQueueingTime:histogram:rangemin 0
scalar SwitchedLAN.switch.eth[3].queue flowQueueingTime:histogram:rangemax 1
scalar SwitchedLAN.switch.eth[3].queue flowQueueingTime:histogram:underflows 0
scalar SwitchedLAN.switch.eth[3].queue flowQueueingTime:histogram:overflows 0
scalar SwitchedLAN.switch.eth[3].queue incomingPacketLengths:histogram:count 3186
scalar SwitchedLAN.switch.eth[3].queue incomingPacketLengths:histogram:sumweights 3186
scalar SwitchedLAN.switch.eth[3].queue incomingPacketLengths:histogram:mean 10105.596986817325
scalar SwitchedLAN.switch.eth[3].queue incomingPacketLengths:histogram:stddev 3560.5353741039048
scalar SwitchedLAN.switch.eth[3].queue incomingPacketLengths:histogram:min 176
scalar SwitchedLAN.switch.eth[3].queue incomingPacketLengths:histogram:max 12144
scalar SwitchedLAN.switch.eth[3].queue incomingPacketLengths:histogram:numbins 75
scalar SwitchedLAN.switch.eth[3].queue incomingPacketLengths:histogram:rangemin 0
scalar SwitchedLAN.switch.eth[3].queue incomingPacketLengths:histogram:rangemax 15000
scalar SwitchedLAN.switch.eth[3].queue incomingPacketLengths:histogram:underflows 0
scalar SwitchedLAN.switch.eth[3].queue incomingPacketLengths:histogram:overflows 0
scalar SwitchedLAN.switch.eth[3].mac throughput:histogram:count 10000
scalar SwitchedLAN.switch.eth[3].mac throughput:histogram:sumweights 10000
scalar SwitchedLAN.switch.eth[3].mac throughput:histogram:mean 32405.119999999999
scalar SwitchedLAN.switch.eth[3].mac throughput:histogram:stddev 119530.08633151505
scalar SwitchedLAN.switch.eth[3].mac throughput:histogram:min 0
scalar SwitchedLAN.switch.eth[3].mac throughput:histogram:max 1267120
scalar SwitchedLAN.switch.eth[3].mac throughput:histogram:numbins 64
scalar SwitchedLAN.switch.eth[3].mac throughput:histogram:rangemin 0
scalar SwitchedLAN.switch.eth[3].mac throughput:histogram:rangemax 1280000
scalar SwitchedLAN.switch.eth[3].mac throughput:histogram:underflows 0
scalar SwitchedLAN.switch.eth[3].mac throughput:histogram:overflows 0
scalar SwitchedLAN.switch.eth[3].mac utilization:histogram:count 10000
scalar SwitchedLAN.switch.eth[3].mac utilization:histogram:sumweights 10000
scalar SwitchedLAN.switch.eth[3].mac utilization:histogram:mean 0.032405120000000016
scalar SwitchedLAN.switch.eth[3].mac utilization:histogram:stddev 0.11953065230345276
scalar SwitchedLAN.switch.eth[3].mac utilization:histogram:min 0
scalar SwitchedLAN.switch.eth[3].mac utilization:histogram:max 1.2671200000000002
scalar SwitchedLAN.switch.eth[3].mac utilization:histogram:numbins 64
scalar SwitchedLAN.switch.eth[3].mac utilization:histogram:rangemin 0
scalar SwitchedLAN.switch.eth[3].mac utilization:histogram:rangemax 1.28
scalar SwitchedLAN.switch.eth[3].mac utilization:histogram:underflows 0
scalar SwitchedLAN.switch.eth[3].mac utilization:histogram:overflows 0
statistic SwitchedLAN.hostA.cli endToEndDelay:histogram
field count 0
field mean -nan
field stddev nan
field min nan
field max nan
field sum 0
field sqrsum 0
bin	-inf	0
bin	0	0
bin	1	0
statistic SwitchedLAN.hostA.srv endToEndDelay:histogram
field count 3025
field mean 0.00011981192727272717
field stddev 6.3375376750975505e-05
field min 1.2839999999999999e-05
field max 0.00022883999999999998
field sum 0.36243107999999968
field sqrsum 5.5569275854400055e-05
bin	-inf	0
bin	0	0
bin	5.0000000000000013e-06	0
bin	1.0000000000000003e-05	37
bin	1.5000000000000004e-05	66
bin	2.0000000000000005e-05	67
bin	2.5000000000000005e-05	83
bin	3.0000000000000008e-05	67
bin	3.500000000000001e-05	70
bin	4.000000000000001e-05	72
bin	4.500000000000001e-05	84
bin	5.0000000000000009e-05	67
bin	5.5000000000000016e-05	81
bin	6.0000000000000015e-05	70
bin	6.5000000000000021e-05	59
bin	7.0000000000000021e-05	76
bin	7.5000000000000021e-05	77
bin	8.000000000000002e-05	102
bin	8.500000000000002e-05	71
bin	9.0000000000000019e-05	72
bin	9.5000000000000019e-05	64
bin	0.00010000000000000002	62
bin	0.00010500000000000003	54
bin	0.00011000000000000003	64
bin	0.00011500000000000003	79
bin	0.00012000000000000003	59
bin	0.00012500000000000003	68
bin	0.00013000000000000004	57
bin	0.00013500000000000003	73
bin	0.00014000000000000004	73
bin	0.00014500000000000003	63
bin	0.00015000000000000004	61
bin	0.00015500000000000003	80
bin	0.00016000000000000004	63
bin	0.00016500000000000005	53
bin	0.00017000000000000004	60
bin	0.00017500000000000005	57
bin	0.00018000000000000004	87
bin	0.00018500000000000005	61
bin	0.00019000000000000004	64
bin	0.00019500000000000005	65
bin	0.00020000000000000004	80
bin	0.00020500000000000005	69
bin	0.00021000000000000006	76
bin	0.00021500000000000005	70
bin	0.00022000000000000006	90
bin	0.00022500000000000005	52
bin	0.00023000000000000006	0
bin	0.00023500000000000005	0
bin	0.00024000000000000006	0
bin	0.00024500000000000005	0
bin	0.00025000000000000006	0
bin	0.00025500000000000007	0
bin	0.00026000000000000009	0
bin	0.00026500000000000004	0
bin	0.00027000000000000006	0
bin	0.00027500000000000007	0
bin	0.00028000000000000008	0
statistic SwitchedLAN.hostA.eth.queue queueingTime:histogram
field count 9499
field mean 0.00018151513070428774
field stddev 0.00017901579473203713
field min 0
field max 0.0011073599999999999
field sum 1.7242122265600293
field sqrsum 0.00061734973461010474
bin	-inf	0
bin	0	3023
bin	2.0000000000000002e-05	0
bin	4.0000000000000003e-05	0
bin	6.0000000000000008e-05	0
bin	8.0000000000000007e-05	1
bin	0.0001	0
bin	0.00012000000000000002	2541
bin	0.00014000000000000001	0
bin	0.00016000000000000001	0
bin	0.00018000000000000001	0
bin	0.00020000000000000001	1
bin	0.00022000000000000001	0
bin	0.00024000000000000003	1822
bin	0.00026000000000000003	0
bin	0.00028000000000000003	1
bin	0.00030000000000000003	0
bin	0.00032000000000000003	1
bin	0.00034000000000000002	0
bin	0.00036000000000000002	1149
bin	0.00038000000000000002	0
bin	0.00040000000000000002	1
bin	0.00042000000000000002	0
bin	0.00044000000000000002	1
bin	0.00046000000000000001	0
bin	0.00048000000000000007	588
bin	0.00050000000000000001	0
bin	0.00052000000000000006	1
bin	0.00054000000000000001	0
bin	0.00056000000000000006	0
bin	0.00058	1
bin	0.00060000000000000006	241
bin	0.00062	0
bin	0.00064000000000000005	0
bin	0.0006600000000000001	0
bin	0.00068000000000000005	0
bin	0.0007000000000000001	0
bin	0.00072000000000000005	95
bin	0.0007400000000000001	0
bin	0.00076000000000000004	0
bin	0.00078000000000000009	0
bin	0.00080000000000000004	0
bin	0.00082000000000000009	0
bin	0.00084000000000000003	0
bin	0.00086000000000000009	26
bin	0.00088000000000000014	0
bin	0.00090000000000000008	0
bin	0.00092000000000000014	0
bin	0.00094000000000000008	0
bin	0.00096000000000000013	0
bin	0.00098000000000000019	5
bin	0.0010000000000000002	0
bin	0.0010200000000000003	0
bin	0.0010400000000000003	0
bin	0.0010600000000000002	0
bin	0.0010800000000000002	0
bin	0.0011000000000000003	1
bin	0.0011200000000000003	0
statistic SwitchedLAN.hostA.eth.queue outgoingPacketLengths:histogram
field count 9499
field mean 10142.581745446889
field stddev 3522.3022940920273
field min 176
field max 12144
field sum 96344384
field sqrsum 1095018804992
bin	-inf	0
bin	0	12
bin	200	57
bin	400	52
bin	600	52
bin	800	64
bin	1000	67
bin	1200	50
bin	1400	74
bin	1600	58
bin	1800	48
bin	2000	64
bin	2200	61
bin	2400	61
bin	2600	46
bin	2800	51
bin	3000	43
bin	3200	47
bin	3400	48
bin	3600	64
bin	3800	53
bin	4000	57
bin	4200	57
bin	4400	46
bin	4600	41
bin	4800	58
bin	5000	42
bin	5200	51
bin	5400	51
bin	5600	59
bin	5800	49
bin	6000	42
bin	6200	49
bin	6400	39
bin	6600	44
bin	6800	46
bin	7000	55
bin	7200	56
bin	7400	54
bin	7600	54
bin	7800	55
bin	8000	54
bin	8200	49
bin	8400	49
bin	8600	57
bin	8800	51
bin	9000	36
bin	9200	39
bin	9400	47
bin	9600	43
bin	9800	47
bin	10000	39
bin	10200	36
bin	10400	46
bin	10600	34
bin	10800	49
bin	11000	51
bin	11200	48
bin	11400	47
bin	11600	47
bin	11800	45
bin	12000	6508
bin	12200	0
bin	12400	0
bin	12600	0
bin	12800	0
bin	13000	0
bin	13200	0
bin	13400	0
bin	13600	0
bin	13800	0
bin	14000	0
bin	14200	0
bin	14400	0
bin	14600	0
bin	14800	0
bin	15000	0
statistic SwitchedLAN.hostA.eth.queue flowQueueingTime:histogram
field count 0
field mean -nan
field stddev nan
field min nan
field max nan
field sum 0
field sqrsum 0
bin	-inf	0
bin	0	0
bin	1	0
statistic SwitchedLAN.hostA.eth.queue incomingPacketLengths:histogram
field count 9499
field mean 10142.581745446889
field stddev 3522.3022940920273
field min 176
field max 12144
field sum 96344384
field sqrsum 1095018804992
bin	-inf	0
bin	0	12
bin	200	57
bin	400	52
bin	600	52
bin	800	64
bin	1000	67
bin	1200	50
bin	1400	74
bin	1600	58
bin	1800	48
bin	2000	64
bin	2200	61
bin	2400	61
bin	2600	46
bin	2800	51
bin	3000	43
bin	3200	47
bin	3400	48
bin	3600	64
bin	3800	53
bin	4000	57
bin	4200	57
bin	4400	46
bin	4600	41
bin	4800	58
bin	5000	42
bin	5200	51
bin	5400	51
bin	5600	59
bin	5800	49
bin	6000	42
bin	6200	49
bin	6400	39
bin	6600	44
bin	6800	46
bin	7000	55
bin	7200	56
bin	7400	54
bin	7600	54
bin	7800	55
bin	8000	54
bin	8200	49
bin	8400	49
bin	8600	57
bin	8800	51
bin	9000	36
bin	9200	39
bin	9400	47
bin	9600	43
bin	9800	47
bin	10000	39
bin	10200	36
bin	10400	46
bin	10600	34
bin	10800	49
bin	11000	51
bin	11200	48
bin	11400	47
bin	11600	47
bin	11800	45
bin	12000	6508
bin	12200	0
bin	12400	0
[...]
scalar SwitchedLAN.switch.eth[2].mac packetDropInterfaceDown:vector(packetBytes):starttime nan
scalar SwitchedLAN.switch.eth[2].mac packetDropInterfaceDown:vector(packetBytes):endtime nan
scalar SwitchedLAN.switch.eth[2].mac packetDropNotAddressedToUs:vector(packetBytes):count 0
scalar SwitchedLAN.switch.eth[2].mac packetDropNotAddressedToUs:vector(packetBytes):sum 0
scalar SwitchedLAN.switch.eth[2].mac packetDropNotAddressedToUs:vector(packetBytes):sumweights 0
scalar SwitchedLAN.switch.eth[2].mac packetDropNotAddressedToUs:vector(packetBytes):mean -nan
scalar SwitchedLAN.switch.eth[2].mac packetDropNotAddressedToUs:vector(packetBytes):stddev nan
scalar SwitchedLAN.switch.eth[2].mac packetDropNotAddressedToUs:vector(packetBytes):min inf
scalar SwitchedLAN.switch.eth[2].mac packetDropNotAddressedToUs:vector(packetBytes):max -inf
scalar SwitchedLAN.switch.eth[2].mac packetDropNotAddressedToUs:vector(packetBytes):starttime nan
scalar SwitchedLAN.switch.eth[2].mac packetDropNotAddressedToUs:vector(packetBytes):endtime nan
scalar SwitchedLAN.switch.eth[2] packetDropInterfaceDown:vector(packetBytes):count 0
scalar SwitchedLAN.switch.eth[2] packetDropInterfaceDown:vector(packetBytes):sum 0
scalar SwitchedLAN.switch.eth[2] packetDropInterfaceDown:vector(packetBytes):sumweights 0
scalar SwitchedLAN.switch.eth[2] packetDropInterfaceDown:vector(packetBytes):mean -nan
scalar SwitchedLAN.switch.eth[2] packetDropInterfaceDown:vector(packetBytes):stddev nan
scalar SwitchedLAN.switch.eth[2] packetDropInterfaceDown:vector(packetBytes):min inf
scalar SwitchedLAN.switch.eth[2] packetDropInterfaceDown:vector(packetBytes):max -inf
scalar SwitchedLAN.switch.eth[2] packetDropInterfaceDown:vector(packetBytes):starttime nan
scalar SwitchedLAN.switch.eth[2] packetDropInterfaceDown:vector(packetBytes):endtime nan
scalar SwitchedLAN.switch.eth[2] packetDropNoCarrier:vector(packetBytes):count 0
scalar SwitchedLAN.switch.eth[2] packetDropNoCarrier:vector(packetBytes):sum 0
scalar SwitchedLAN.switch.eth[2] packetDropNoCarrier:vector(packetBytes):sumweights 0
scalar SwitchedLAN.switch.eth[2] packetDropNoCarrier:vector(packetBytes):mean -nan
scalar SwitchedLAN.switch.eth[2] packetDropNoCarrier:vector(packetBytes):stddev nan
scalar SwitchedLAN.switch.eth[2] packetDropNoCarrier:vector(packetBytes):min inf
scalar SwitchedLAN.switch.eth[2] packetDropNoCarrier:vector(packetBytes):max -inf
scalar SwitchedLAN.switch.eth[2] packetDropNoCarrier:vector(packetBytes):starttime nan
scalar SwitchedLAN.switch.eth[2] packetDropNoCarrier:vector(packetBytes):endtime nan
scalar SwitchedLAN.switch.eth[3].queue queueLength:vector:count 0
scalar SwitchedLAN.switch.eth[3].queue queueLength:vector:sum 0
scalar SwitchedLAN.switch.eth[3].queue queueLength:vector:sumweights 0
scalar SwitchedLAN.switch.eth[3].queue queueLength:vector:mean -nan
scalar SwitchedLAN.switch.eth[3].queue queueLength:vector:stddev nan
scalar SwitchedLAN.switch.eth[3].queue queueLength:vector:min inf
scalar SwitchedLAN.switch.eth[3].queue queueLength:vector:max -inf
scalar SwitchedLAN.switch.eth[3].queue queueLength:vector:starttime nan
scalar SwitchedLAN.switch.eth[3].queue queueLength:vector:endtime nan
scalar SwitchedLAN.switch.eth[3].queue queueBitLength:vector:count 0
scalar SwitchedLAN.switch.eth[3].queue queueBitLength:vector:sum 0
scalar SwitchedLAN.switch.eth[3].queue queueBitLength:vector:sumweights 0
scalar SwitchedLAN.switch.eth[3].queue queueBitLength:vector:mean -nan
scalar SwitchedLAN.switch.eth[3].queue queueBitLength:vector:stddev nan
scalar SwitchedLAN.switch.eth[3].queue queueBitLength:vector:min inf
scalar SwitchedLAN.switch.eth[3].queue queueBitLength:vector:max -inf
scalar SwitchedLAN.switch.eth[3].queue queueBitLength:vector:starttime nan
scalar SwitchedLAN.switch.eth[3].queue queueBitLength:vector:endtime nan
scalar SwitchedLAN.switch.eth[3].queue queueingTime:vector:count 0
scalar SwitchedLAN.switch.eth[3].queue queueingTime:vector:sum 0
scalar SwitchedLAN.switch.eth[3].queue queueingTime:vector:sumweights 0
scalar SwitchedLAN.switch.eth[3].queue queueingTime:vector:mean -nan
scalar SwitchedLAN.switch.eth[3].queue queueingTime:vector:stddev nan
scalar SwitchedLAN.switch.eth[3].queue queueingTime:vector:min inf
scalar SwitchedLAN.switch.eth[3].queue queueingTime:vector:max -inf
scalar SwitchedLAN.switch.eth[3].queue queueingTime:vector:starttime nan
scalar SwitchedLAN.switch.eth[3].queue queueingTime:vector:endtime nan
scalar SwitchedLAN.switch.eth[3].queue incomingPacketLengths:vector:count 0
scalar SwitchedLAN.switch.eth[3].queue incomingPacketLengths:vector:sum 0
scalar SwitchedLAN.switch.eth[3].queue incomingPacketLengths:vector:sumweights 0
scalar SwitchedLAN.switch.eth[3].queue incomingPacketLengths:vector:mean -nan
scalar SwitchedLAN.switch.eth[3].queue incomingPacketLengths:vector:stddev nan
scalar SwitchedLAN.switch.eth[3].queue incomingPacketLengths:vector:min inf
scalar SwitchedLAN.switch.eth[3].queue incomingPacketLengths:vector:max -inf
scalar SwitchedLAN.switch.eth[3].queue incomingPacketLengths:vector:starttime nan
scalar SwitchedLAN.switch.eth[3].queue incomingPacketLengths:vector:endtime nan
scalar SwitchedLAN.switch.eth[3].queue incomingDataRate:vector:count 0
scalar SwitchedLAN.switch.eth[3].queue incomingDataRate:vector:sum 0
scalar SwitchedLAN.switch.eth[3].queue incomingDataRate:vector:sumweights 0
scalar SwitchedLAN.switch.eth[3].queue incomingDataRate:vector:mean -nan
scalar SwitchedLAN.switch.eth[3].queue incomingDataRate:vector:stddev nan
scalar SwitchedLAN.switch.eth[3].queue incomingDataRate:vector:min inf
scalar SwitchedLAN.switch.eth[3].queue incomingDataRate:vector:max -inf
scalar SwitchedLAN.switch.eth[3].queue incomingDataRate:vector:starttime nan
scalar SwitchedLAN.switch.eth[3].queue incomingDataRate:vector:endtime nan
scalar SwitchedLAN.switch.eth[3].queue outgoingPacketLengths:vector:count 0
scalar SwitchedLAN.switch.eth[3].queue outgoingPacketLengths:vector:sum 0
scalar SwitchedLAN.switch.eth[3].queue outgoingPacketLengths:vector:sumweights 0
scalar SwitchedLAN.switch.eth[3].queue outgoingPacketLengths:vector:mean -nan
scalar SwitchedLAN.switch.eth[3].queue outgoingPacketLengths:vector:stddev nan
scalar SwitchedLAN.switch.eth[3].queue outgoingPacketLengths:vector:min inf
scalar SwitchedLAN.switch.eth[3].queue outgoingPacketLengths:vector:max -inf
scalar SwitchedLAN.switch.eth[3].queue outgoingPacketLengths:vector:starttime nan
scalar SwitchedLAN.switch.eth[3].queue outgoingPacketLengths:vector:endtime nan
scalar SwitchedLAN.switch.eth[3].queue outgoingDataRate:vector:count 0
scalar SwitchedLAN.switch.eth[3].queue outgoingDataRate:vector:sum 0
scalar SwitchedLAN.switch.eth[3].queue outgoingDataRate:vector:sumweights 0
scalar SwitchedLAN.switch.eth[3].queue outgoingDataRate:vector:mean -nan
scalar SwitchedLAN.switch.eth[3].queue outgoingDataRate:vector:stddev nan
scalar SwitchedLAN.switch.eth[3].queue outgoingDataRate:vector:min inf
scalar SwitchedLAN.switch.eth[3].queue outgoingDataRate:vector:max -inf
scalar SwitchedLAN.switch.eth[3].queue outgoingDataRate:vector:starttime nan
scalar SwitchedLAN.switch.eth[3].queue outgoingDataRate:vector:endtime nan
scalar SwitchedLAN.switch.eth[3].queue droppedPacketLengthsQueueOverflow:vector:count 0
scalar SwitchedLAN.switch.eth[3].queue droppedPacketLengthsQueueOverflow:vector:sum 0
scalar SwitchedLAN.switch.eth[3].queue droppedPacketLengthsQueueOverflow:vector:sumweights 0
scalar SwitchedLAN.switch.eth[3].queue droppedPacketLengthsQueueOverflow:vector:mean -nan
scalar SwitchedLAN.switch.eth[3].queue droppedPacketLengthsQueueOverflow:vector:stddev nan
scalar SwitchedLAN.switch.eth[3].queue droppedPacketLengthsQueueOverflow:vector:min inf
scalar SwitchedLAN.switch.eth[3].queue droppedPacketLengthsQueueOverflow:vector:max -inf
scalar SwitchedLAN.switch.eth[3].queue droppedPacketLengthsQueueOverflow:vector:starttime nan
scalar SwitchedLAN.switch.eth[3].queue droppedPacketLengthsQueueOverflow:vector:endtime nan
scalar SwitchedLAN.switch.eth[3].queue flowQueueingTime:vector:count 0
scalar SwitchedLAN.switch.eth[3].queue flowQueueingTime:vector:sum 0
scalar SwitchedLAN.switch.eth[3].queue flowQueueingTime:vector:sumweights 0
scalar SwitchedLAN.switch.eth[3].queue flowQueueingTime:vector:mean -nan
scalar SwitchedLAN.switch.eth[3].queue flowQueueingTime:vector:stddev nan
scalar SwitchedLAN.switch.eth[3].queue flowQueueingTime:vector:min inf
scalar SwitchedLAN.switch.eth[3].queue flowQueueingTime:vector:max -inf
scalar SwitchedLAN.switch.eth[3].queue flowQueueingTime:vector:starttime nan
scalar SwitchedLAN.switch.eth[3].queue flowQueueingTime:vector:endtime nan
scalar SwitchedLAN.switch.eth[3].queue flowIncomingDataRate:vector:count 0
scalar SwitchedLAN.switch.eth[3].queue flowIncomingDataRate:vector:sum 0
scalar SwitchedLAN.switch.eth[3].queue flowIncomingDataRate:vector:sumweights 0
scalar SwitchedLAN.switch.eth[3].queue flowIncomingDataRate:vector:mean -nan
scalar SwitchedLAN.switch.eth[3].queue flowIncomingDataRate:vector:stddev nan
scalar SwitchedLAN.switch.eth[3].queue flowIncomingDataRate:vector:min inf
scalar SwitchedLAN.switch.eth[3].queue flowIncomingDataRate:vector:max -inf
scalar SwitchedLAN.switch.eth[3].queue flowIncomingDataRate:vector:starttime nan
scalar SwitchedLAN.switch.eth[3].queue flowIncomingDataRate:vector:endtime nan
scalar SwitchedLAN.switch.eth[3].queue flowOutgoingDataRate:vector:count 0
scalar SwitchedLAN.switch.eth[3].queue flowOutgoingDataRate:vector:sum 0
scalar SwitchedLAN.switch.eth[3].queue flowOutgoingDataRate:vector:sumweights 0
scalar SwitchedLAN.switch.eth[3].queue flowOutgoingDataRate:vector:mean -nan
scalar SwitchedLAN.switch.eth[3].queue flowOutgoingDataRate:vector:stddev nan
scalar SwitchedLAN.switch.eth[3].queue flowOutgoingDataRate:vector:min inf
scalar SwitchedLAN.switch.eth[3].queue flowOutgoingDataRate:vector:max -inf
scalar SwitchedLAN.switch.eth[3].queue flowOutgoingDataRate:vector:starttime nan
scalar SwitchedLAN.switch.eth[3].queue flowOutgoingDataRate:vector:endtime nan
scalar SwitchedLAN.switch.eth[3].mac transmitting:vector:count 0
scalar SwitchedLAN.switch.eth[3].mac transmitting:vector:sum 0
scalar SwitchedLAN.switch.eth[3].mac transmitting:vector:sumweights 0
scalar SwitchedLAN.switch.eth[3].mac transmitting:vector:mean -nan
scalar SwitchedLAN.switch.eth[3].mac transmitting:vector:stddev nan
scalar SwitchedLAN.switch.eth[3].mac transmitting:vector:min inf
scalar SwitchedLAN.switch.eth[3].mac transmitting:vector:max -inf
scalar SwitchedLAN.switch.eth[3].mac transmitting:vector:starttime nan
scalar SwitchedLAN.switch.eth[3].mac transmitting:vector:endtime nan
scalar SwitchedLAN.switch.eth[3].mac throughput:vector:count 0
scalar SwitchedLAN.switch.eth[3].mac throughput:vector:sum 0
scalar SwitchedLAN.switch.eth[3].mac throughput:vector:sumweights 0
scalar SwitchedLAN.switch.eth[3].mac throughput:vector:mean -nan
scalar SwitchedLAN.switch.eth[3].mac throughput:vector:stddev nan
scalar SwitchedLAN.switch.eth[3].mac throughput:vector:min inf
scalar SwitchedLAN.switch.eth[3].mac throughput:vector:max -inf
scalar SwitchedLAN.switch.eth[3].mac throughput:vector:starttime nan
scalar SwitchedLAN.switch.eth[3].mac throughput:vector:endtime nan
scalar SwitchedLAN.switch.eth[3].mac utilization:vector:count 0
scalar SwitchedLAN.switch.eth[3].mac utilization:vector:sum 0
scalar SwitchedLAN.switch.eth[3].mac utilization:vector:sumweights 0
scalar SwitchedLAN.switch.eth[3].mac utilization:vector:mean -nan
scalar SwitchedLAN.switch.eth[3].mac utilization:vector:stddev nan
scalar SwitchedLAN.switch.eth[3].mac utilization:vector:min inf
scalar SwitchedLAN.switch.eth[3].mac utilization:vector:max -inf
scalar SwitchedLAN.switch.eth[3].mac utilization:vector:starttime nan
scalar SwitchedLAN.switch.eth[3].mac utilization:vector:endtime nan
scalar SwitchedLAN.switch.eth[3].mac txPk:vector(packetBytes):count 0
scalar SwitchedLAN.switch.eth[3].mac txPk:vector(packetBytes):sum 0
scalar SwitchedLAN.switch.eth[3].mac txPk:vector(packetBytes):sumweights 0
scalar SwitchedLAN.switch.eth[3].mac txPk:vector(packetBytes):mean -nan
scalar SwitchedLAN.switch.eth[3].mac txPk:vector(packetBytes):stddev nan
scalar SwitchedLAN.switch.eth[3].mac txPk:vector(packetBytes):min inf
scalar SwitchedLAN.switch.eth[3].mac txPk:vector(packetBytes):max -inf
scalar SwitchedLAN.switch.eth[3].mac txPk:vector(packetBytes):starttime nan
scalar SwitchedLAN.switch.eth[3].mac txPk:vector(packetBytes):endtime nan
scalar SwitchedLAN.switch.eth[3].mac rxPkOk:vector(packetBytes):count 0
scalar SwitchedLAN.switch.eth[3].mac rxPkOk:vector(packetBytes):sum 0
scalar SwitchedLAN.switch.eth[3].mac rxPkOk:vector(packetBytes):sumweights 0
scalar SwitchedLAN.switch.eth[3].mac rxPkOk:vector(packetBytes):mean -nan
scalar SwitchedLAN.switch.eth[3].mac rxPkOk:vector(packetBytes):stddev nan
scalar SwitchedLAN.switch.eth[3].mac rxPkOk:vector(packetBytes):min inf
scalar SwitchedLAN.switch.eth[3].mac rxPkOk:vector(packetBytes):max -inf
scalar SwitchedLAN.switch.eth[3].mac rxPkOk:vector(packetBytes):starttime nan
scalar SwitchedLAN.switch.eth[3].mac rxPkOk:vector(packetBytes):endtime nan
scalar SwitchedLAN.switch.eth[3].mac passedUpPk:vector(packetBytes):count 0
scalar SwitchedLAN.switch.eth[3].mac passedUpPk:vector(packetBytes):sum 0
scalar SwitchedLAN.switch.eth[3].mac passedUpPk:vector(packetBytes):sumweights 0
scalar SwitchedLAN.switch.eth[3].mac passedUpPk:vector(packetBytes):mean -nan
scalar SwitchedLAN.switch.eth[3].mac passedUpPk:vector(packetBytes):stddev nan
scalar SwitchedLAN.switch.eth[3].mac passedUpPk:vector(packetBytes):min inf
scalar SwitchedLAN.switch.eth[3].mac passedUpPk:vector(packetBytes):max -inf
scalar SwitchedLAN.switch.eth[3].mac passedUpPk:vector(packetBytes):starttime nan
scalar SwitchedLAN.switch.eth[3].mac passedUpPk:vector(packetBytes):endtime nan
scalar SwitchedLAN.switch.eth[3].mac txPausePkUnits:vector:count 0
scalar SwitchedLAN.switch.eth[3].mac txPausePkUnits:vector:sum 0
scalar SwitchedLAN.switch.eth[3].mac txPausePkUnits:vector:sumweights 0
scalar SwitchedLAN.switch.eth[3].mac txPausePkUnits:vector:mean -nan
scalar SwitchedLAN.switch.eth[3].mac txPausePkUnits:vector:stddev nan
scalar SwitchedLAN.switch.eth[3].mac txPausePkUnits:vector:min inf
scalar SwitchedLAN.switch.eth[3].mac txPausePkUnits:vector:max -inf
scalar SwitchedLAN.switch.eth[3].mac txPausePkUnits:vector:starttime nan
scalar SwitchedLAN.switch.eth[3].mac txPausePkUnits:vector:endtime nan
scalar SwitchedLAN.switch.eth[3].mac rxPausePkUnits:vector:count 0
scalar SwitchedLAN.switch.eth[3].mac rxPausePkUnits:vector:sum 0
scalar SwitchedLAN.switch.eth[3].mac rxPausePkUnits:vector:sumweights 0
scalar SwitchedLAN.switch.eth[3].mac rxPausePkUnits:vector:mean -nan
scalar SwitchedLAN.switch.eth[3].mac rxPausePkUnits:vector:stddev nan
scalar SwitchedLAN.switch.eth[3].mac rxPausePkUnits:vector:min inf
scalar SwitchedLAN.switch.eth[3].mac rxPausePkUnits:vector:max -inf
scalar SwitchedLAN.switch.eth[3].mac rxPausePkUnits:vector:starttime nan
scalar SwitchedLAN.switch.eth[3].mac rxPausePkUnits:vector:endtime nan
scalar SwitchedLAN.switch.eth[3].mac packetReceivedFromUpper:vector(packetBytes):count 0
scalar SwitchedLAN.switch.eth[3].mac packetReceivedFromUpper:vector(packetBytes):sum 0
scalar SwitchedLAN.switch.eth[3].mac packetReceivedFromUpper:vector(packetBytes):sumweights 0
scalar SwitchedLAN.switch.eth[3].mac packetReceivedFromUpper:vector(packetBytes):mean -nan
scalar SwitchedLAN.switch.eth[3].mac packetReceivedFromUpper:vector(packetBytes):stddev nan
scalar SwitchedLAN.switch.eth[3].mac packetReceivedFromUpper:vector(packetBytes):min inf
scalar SwitchedLAN.switch.eth[3].mac packetReceivedFromUpper:vector(packetBytes):max -inf
scalar SwitchedLAN.switch.eth[3].mac packetReceivedFromUpper:vector(packetBytes):starttime nan
scalar SwitchedLAN.switch.eth[3].mac packetReceivedFromUpper:vector(packetBytes):endtime nan
scalar SwitchedLAN.switch.eth[3].mac packetDropIncorrectlyReceived:vector(packetBytes):count 0
scalar SwitchedLAN.switch.eth[3].mac packetDropIncorrectlyReceived:vector(packetBytes):sum 0
scalar SwitchedLAN.switch.eth[3].mac packetDropIncorrectlyReceived:vector(packetBytes):sumweights 0
scalar SwitchedLAN.switch.eth[3].mac packetDropIncorrectlyReceived:vector(packetBytes):mean -nan
scalar SwitchedLAN.switch.eth[3].mac packetDropIncorrectlyReceived:vector(packetBytes):stddev nan
scalar SwitchedLAN.switch.eth[3].mac packetDropIncorrectlyReceived:vector(packetBytes):min inf
scalar SwitchedLAN.switch.eth[3].mac packetDropIncorrectlyReceived:vector(packetBytes):max -inf
scalar SwitchedLAN.switch.eth[3].mac packetDropIncorrectlyReceived:vector(packetBytes):starttime nan
scalar SwitchedLAN.switch.eth[3].mac packetDropIncorrectlyReceived:vector(packetBytes):endtime nan
scalar SwitchedLAN.switch.eth[3].mac packetDropInterfaceDown:vector(packetBytes):count 0
scalar SwitchedLAN.switch.eth[3].mac packetDropInterfaceDown:vector(packetBytes):sum 0
scalar SwitchedLAN.switch.eth[3].mac packetDropInterfaceDown:vector(packetBytes):sumweights 0
scalar SwitchedLAN.switch.eth[3].mac packetDropInterfaceDown:vector(packetBytes):mean -nan
scalar SwitchedLAN.switch.eth[3].mac packetDropInterfaceDown:vector(packetBytes):stddev nan
scalar SwitchedLAN.switch.eth[3].mac packetDropInterfaceDown:vector(packetBytes):min inf
scalar SwitchedLAN.switch.eth[3].mac packetDropInterfaceDown:vector(packetBytes):max -inf
scalar SwitchedLAN.switch.eth[3].mac packetDropInterfaceDown:vector(packetBytes):starttime nan
scalar SwitchedLAN.switch.eth[3].mac packetDropInterfaceDown:vector(packetBytes):endtime nan
scalar SwitchedLAN.switch.eth[3].mac packetDropNotAddressedToUs:vector(packetBytes):count 0
scalar SwitchedLAN.switch.eth[3].mac packetDropNotAddressedToUs:vector(packetBytes):sum 0
scalar SwitchedLAN.switch.eth[3].mac packetDropNotAddressedToUs:vector(packetBytes):sumweights 0
scalar SwitchedLAN.switch.eth[3].mac packetDropNotAddressedToUs:vector(packetBytes):mean -nan
scalar SwitchedLAN.switch.eth[3].mac packetDropNotAddressedToUs:vector(packetBytes):stddev nan
scalar SwitchedLAN.switch.eth[3].mac packetDropNotAddressedToUs:vector(packetBytes):min inf
scalar SwitchedLAN.switch.eth[3].mac packetDropNotAddressedToUs:vector(packetBytes):max -inf
scalar SwitchedLAN.switch.eth[3].mac packetDropNotAddressedToUs:vector(packetBytes):starttime nan
scalar SwitchedLAN.switch.eth[3].mac packetDropNotAddressedToUs:vector(packetBytes):endtime nan
scalar SwitchedLAN.switch.eth[3] packetDropInterfaceDown:vector(packetBytes):count 0
scalar SwitchedLAN.switch.eth[3] packetDropInterfaceDown:vector(packetBytes):sum 0
scalar SwitchedLAN.switch.eth[3] packetDropInterfaceDown:vector(packetBytes):sumweights 0
scalar SwitchedLAN.switch.eth[3] packetDropInterfaceDown:vector(packetBytes):mean -nan
scalar SwitchedLAN.switch.eth[3] packetDropInterfaceDown:vector(packetBytes):stddev nan
scalar SwitchedLAN.switch.eth[3] packetDropInterfaceDown:vector(packetBytes):min inf
scalar SwitchedLAN.switch.eth[3] packetDropInterfaceDown:vector(packetBytes):max -inf
scalar SwitchedLAN.switch.eth[3] packetDropInterfaceDown:vector(packetBytes):starttime nan
scalar SwitchedLAN.switch.eth[3] packetDropInterfaceDown:vector(packetBytes):endtime nan
scalar SwitchedLAN.switch.eth[3] packetDropNoCarrier:vector(packetBytes):count 0
scalar SwitchedLAN.switch.eth[3] packetDropNoCarrier:vector(packetBytes):sum 0
scalar SwitchedLAN.switch.eth[3] packetDropNoCarrier:vector(packetBytes):sumweights 0
scalar SwitchedLAN.switch.eth[3] packetDropNoCarrier:vector(packetBytes):mean -nan
scalar SwitchedLAN.switch.eth[3] packetDropNoCarrier:vector(packetBytes):stddev nan
scalar SwitchedLAN.switch.eth[3] packetDropNoCarrier:vector(packetBytes):min inf
scalar SwitchedLAN.switch.eth[3] packetDropNoCarrier:vector(packetBytes):max -inf
scalar SwitchedLAN.switch.eth[3] packetDropNoCarrier:vector(packetBytes):starttime nan
scalar SwitchedLAN.switch.eth[3] packetDropNoCarrier:vector(packetBytes):endtime nan

