version 3
run General-0-20260709-08:54:13-329130
attr configname General
attr datetime 20260709-08:54:13
attr datetimef 20260709-085413
attr experiment General
attr inifile omnetpp.ini
attr iterationvars ""
attr iterationvarsd ""
attr iterationvarsf ""
attr measurement ""
attr network v3_4_routers_2_areas
attr processid 329130
attr repetition 0
attr replication #0
attr resultdir results
attr runnumber 0
attr seedset 0
config **.param-recording false
config image-path /home/andras/projects/inet/images
config output-scalar-file results/omnetpp.ini-General-#0.sca
config output-scalar-precision 17
config output-vector-file results/omnetpp.ini-General-#0.vec
config output-vector-precision 17
config record-eventlog false
config sim-time-limit 300s
config network v3_4_routers_2_areas
config **.Router1.ospf.ospfv3Splitter.ospfv3RoutingConfig "xmldoc(\"config.xml\", \"Devices/Router[@id='Router1']/Routing6/OSPFv3\")"
config **.Router2.ospf.ospfv3Splitter.ospfv3RoutingConfig "xmldoc(\"config.xml\", \"Devices/Router[@id='Router2']/Routing6/OSPFv3\")"
config **.Router3.ospf.ospfv3Splitter.ospfv3RoutingConfig "xmldoc(\"config.xml\", \"Devices/Router[@id='Router3']/Routing6/OSPFv3\")"
config **.Router4.ospf.ospfv3Splitter.ospfv3RoutingConfig "xmldoc(\"config.xml\", \"Devices/Router[@id='Router4']/Routing6/OSPFv3\")"
config **.Router5.ospf.ospfv3Splitter.ospfv3RoutingConfig "xmldoc(\"config.xml\", \"Devices/Router[@id='Router5']/Routing6/OSPFv3\")"
config **.Router1.ospf.ospfv3Splitter.ospfv3IntConfig "xmldoc(\"config.xml\", \"Devices/Router[@id='Router1']/Interfaces\")"
config **.Router2.ospf.ospfv3Splitter.ospfv3IntConfig "xmldoc(\"config.xml\", \"Devices/Router[@id='Router2']/Interfaces\")"
config **.Router3.ospf.ospfv3Splitter.ospfv3IntConfig "xmldoc(\"config.xml\", \"Devices/Router[@id='Router3']/Interfaces\")"
config **.Router4.ospf.ospfv3Splitter.ospfv3IntConfig "xmldoc(\"config.xml\", \"Devices/Router[@id='Router4']/Interfaces\")"
config **.Router5.ospf.ospfv3Splitter.ospfv3IntConfig "xmldoc(\"config.xml\", \"Devices/Router[@id='Router5']/Interfaces\")"

scalar v3_4_routers_2_areas.Router1.ethernet pauseSent:count 0
scalar v3_4_routers_2_areas.Router1.ethernet pauseSent:sum 0
scalar v3_4_routers_2_areas.Router1.ethernet decapPk:count 66
scalar v3_4_routers_2_areas.Router1.ethernet decapPk:sum(packetBytes) 6148
scalar v3_4_routers_2_areas.Router1.ethernet encapPk:count 52
scalar v3_4_routers_2_areas.Router1.ethernet encapPk:sum(packetBytes) 4396
scalar v3_4_routers_2_areas.Router1.lo[0].lo rcvdPkFromHl:count 0
scalar v3_4_routers_2_areas.Router1.lo[0].lo rcvdPkFromHl:sum(packetBytes) 0
scalar v3_4_routers_2_areas.Router1.lo[0].lo passedUpPk:count 0
scalar v3_4_routers_2_areas.Router1.lo[0].lo passedUpPk:sum(packetBytes) 0
scalar v3_4_routers_2_areas.Router1.lo[0] packetDropInterfaceDown:count 0
scalar v3_4_routers_2_areas.Router1.lo[0] packetDropInterfaceDown:sum(packetBytes) 0
scalar v3_4_routers_2_areas.Router1.lo[0] packetDropNoCarrier:count 0
scalar v3_4_routers_2_areas.Router1.lo[0] packetDropNoCarrier:sum(packetBytes) 0
scalar v3_4_routers_2_areas.Router1.eth[0].queue queueLength:last 0
scalar v3_4_routers_2_areas.Router1.eth[0].queue queueLength:max 4
scalar v3_4_routers_2_areas.Router1.eth[0].queue queueLength:timeavg 6.082666666666666e-07
scalar v3_4_routers_2_areas.Router1.eth[0].queue queueBitLength:last 0
scalar v3_4_routers_2_areas.Router1.eth[0].queue queueBitLength:max 3008
scalar v3_4_routers_2_areas.Router1.eth[0].queue queueBitLength:timeavg 0.0005020053333333333
scalar v3_4_routers_2_areas.Router1.eth[0].queue outgoingPackets:count 52
scalar v3_4_routers_2_areas.Router1.eth[0].queue outgoingPacketLengths:sum 42656
scalar v3_4_routers_2_areas.Router1.eth[0].queue incomingPackets:count 52
scalar v3_4_routers_2_areas.Router1.eth[0].queue incomingPacketLengths:sum 42656
scalar v3_4_routers_2_areas.Router1.eth[0].queue droppedPacketsQueueOverflow:count 0
scalar v3_4_routers_2_areas.Router1.eth[0].queue droppedPacketLengthsQueueOverflow:sum 0
scalar v3_4_routers_2_areas.Router1.eth[0].mac "simulated time" 300
scalar v3_4_routers_2_areas.Router1.eth[0].mac full-duplex 1
scalar v3_4_routers_2_areas.Router1.eth[0].mac "frames/sec sent" 0.17333333333333334
scalar v3_4_routers_2_areas.Router1.eth[0].mac "frames/sec rcvd" 0.22
scalar v3_4_routers_2_areas.Router1.eth[0].mac "bits/sec sent" 142.18666666666667
scalar v3_4_routers_2_areas.Router1.eth[0].mac "bits/sec rcvd" 195.62666666666667
scalar v3_4_routers_2_areas.Router1.eth[0].mac "rx channel idle (%)" 99.99979029333333
scalar v3_4_routers_2_areas.Router1.eth[0].mac "rx channel utilization (%)" 0.00020970666666666668
scalar v3_4_routers_2_areas.Router1.eth[0].mac rxPausePkUnits:count 0
scalar v3_4_routers_2_areas.Router1.eth[0].mac rxPausePkUnits:sum 0
scalar v3_4_routers_2_areas.Router1.eth[0].mac txPausePkUnits:count 0
scalar v3_4_routers_2_areas.Router1.eth[0].mac txPausePkUnits:sum 0
scalar v3_4_routers_2_areas.Router1.eth[0].mac rxPkOk:count 66
scalar v3_4_routers_2_areas.Router1.eth[0].mac rxPkOk:sum(packetBytes) 7336
scalar v3_4_routers_2_areas.Router1.eth[0].mac txPk:count 52
scalar v3_4_routers_2_areas.Router1.eth[0].mac txPk:sum(packetBytes) 5332
scalar v3_4_routers_2_areas.Router1.eth[0].mac packetReceivedFromUpper:count 52
scalar v3_4_routers_2_areas.Router1.eth[0].mac packetReceivedFromUpper:sum(packetBytes) 5332
scalar v3_4_routers_2_areas.Router1.eth[0].mac passedUpPk:count 66
scalar v3_4_routers_2_areas.Router1.eth[0].mac passedUpPk:sum(packetBytes) 7336
scalar v3_4_routers_2_areas.Router1.eth[0].mac packetDropIncorrectlyReceived:count 0
scalar v3_4_routers_2_areas.Router1.eth[0].mac packetDropIncorrectlyReceived:sum(packetBytes) 0
scalar v3_4_routers_2_areas.Router1.eth[0].mac packetDropInterfaceDown:count 0
scalar v3_4_routers_2_areas.Router1.eth[0].mac packetDropInterfaceDown:sum(packetBytes) 0
scalar v3_4_routers_2_areas.Router1.eth[0].mac packetDropNotAddressedToUs:count 0
scalar v3_4_routers_2_areas.Router1.eth[0].mac packetDropNotAddressedToUs:sum(packetBytes) 0
scalar v3_4_routers_2_areas.Router1.eth[0] packetDropInterfaceDown:count 0
scalar v3_4_routers_2_areas.Router1.eth[0] packetDropInterfaceDown:sum(packetBytes) 0
scalar v3_4_routers_2_areas.Router1.eth[0] packetDropNoCarrier:count 0
scalar v3_4_routers_2_areas.Router1.eth[0] packetDropNoCarrier:sum(packetBytes) 0
scalar v3_4_routers_2_areas.Router1.ipv4.ip packetDropAddressResolutionFailed:count 0
scalar v3_4_routers_2_areas.Router1.ipv4.ip packetDropAddressResolutionFailed:sum(packetBytes) 0
scalar v3_4_routers_2_areas.Router1.ipv4.ip packetDropHopLimitReached:count 0
scalar v3_4_routers_2_areas.Router1.ipv4.ip packetDropHopLimitReached:sum(packetBytes) 0
scalar v3_4_routers_2_areas.Router1.ipv4.ip packetDropForwardingDisabled:count 0
scalar v3_4_routers_2_areas.Router1.ipv4.ip packetDropForwardingDisabled:sum(packetBytes) 0
scalar v3_4_routers_2_areas.Router1.ipv4.ip packetDropLifetimeExpired:count 0
scalar v3_4_routers_2_areas.Router1.ipv4.ip packetDropLifetimeExpired:sum(packetBytes) 0
scalar v3_4_routers_2_areas.Router1.ipv4.ip packetDropNoInterfaceFound:count 0
scalar v3_4_routers_2_areas.Router1.ipv4.ip packetDropNoInterfaceFound:sum(packetBytes) 0
scalar v3_4_routers_2_areas.Router1.ipv4.ip packetDropNoRouteFound:count 0
scalar v3_4_routers_2_areas.Router1.ipv4.ip packetDropNoRouteFound:sum(packetBytes) 0
scalar v3_4_routers_2_areas.Router1.ipv4.ip packetDropUndefined:count 0
scalar v3_4_routers_2_areas.Router1.ipv4.ip packetDropUndefined:sum(packetBytes) 0
scalar v3_4_routers_2_areas.Router1.ipv4.arp arpResolutionFailed:count 0
scalar v3_4_routers_2_areas.Router1.ipv4.arp arpResolutionCompleted:count 0
scalar v3_4_routers_2_areas.Router1.ipv4.arp arpResolutionInitiated:count 0
scalar v3_4_routers_2_areas.Router1.ipv4.arp arpReplySent:count 0
scalar v3_4_routers_2_areas.Router1.ipv4.arp arpReplySent:sum(packetBytes) 0
scalar v3_4_routers_2_areas.Router1.ipv4.arp arpRequestSent:count 0
scalar v3_4_routers_2_areas.Router1.ipv4.arp arpRequestSent:sum(packetBytes) 0
scalar v3_4_routers_2_areas.Router1.ipv6.neighbourDiscovery dadFailed:count 0
scalar v3_4_routers_2_areas.Router1.ipv6.neighbourDiscovery dadCompleted:count 0
scalar v3_4_routers_2_areas.Router1.ipv6.neighbourDiscovery startDad:count 0
scalar v3_4_routers_2_areas.Router2.ethernet pauseSent:count 0
scalar v3_4_routers_2_areas.Router2.ethernet pauseSent:sum 0
scalar v3_4_routers_2_areas.Router2.ethernet decapPk:count 105
scalar v3_4_routers_2_areas.Router2.ethernet decapPk:sum(packetBytes) 9132
scalar v3_4_routers_2_areas.Router2.ethernet encapPk:count 124
scalar v3_4_routers_2_areas.Router2.ethernet encapPk:sum(packetBytes) 11476
scalar v3_4_routers_2_areas.Router2.lo[0].lo rcvdPkFromHl:count 0
scalar v3_4_routers_2_areas.Router2.lo[0].lo rcvdPkFromHl:sum(packetBytes) 0
scalar v3_4_routers_2_areas.Router2.lo[0].lo passedUpPk:count 0
scalar v3_4_routers_2_areas.Router2.lo[0].lo passedUpPk:sum(packetBytes) 0
scalar v3_4_routers_2_areas.Router2.lo[0] packetDropInterfaceDown:count 0
scalar v3_4_routers_2_areas.Router2.lo[0] packetDropInterfaceDown:sum(packetBytes) 0
scalar v3_4_routers_2_areas.Router2.lo[0] packetDropNoCarrier:count 0
scalar v3_4_routers_2_areas.Router2.lo[0] packetDropNoCarrier:sum(packetBytes) 0
scalar v3_4_routers_2_areas.Router2.eth[0].queue queueLength:last 0
scalar v3_4_routers_2_areas.Router2.eth[0].queue queueLength:max 10
scalar v3_4_routers_2_areas.Router2.eth[0].queue queueLength:timeavg 3.3898666666666665e-06
scalar v3_4_routers_2_areas.Router2.eth[0].queue queueBitLength:last 0
scalar v3_4_routers_2_areas.Router2.eth[0].queue queueBitLength:max 9376
scalar v3_4_routers_2_areas.Router2.eth[0].queue queueBitLength:timeavg 0.0031122154666666665
scalar v3_4_routers_2_areas.Router2.eth[0].queue outgoingPackets:count 66
scalar v3_4_routers_2_areas.Router2.eth[0].queue outgoingPacketLengths:sum 58688
scalar v3_4_routers_2_areas.Router2.eth[0].queue incomingPackets:count 66
scalar v3_4_routers_2_areas.Router2.eth[0].queue incomingPacketLengths:sum 58688
scalar v3_4_routers_2_areas.Router2.eth[0].queue droppedPacketsQueueOverflow:count 0
scalar v3_4_routers_2_areas.Router2.eth[0].queue droppedPacketLengthsQueueOverflow:sum 0
scalar v3_4_routers_2_areas.Router2.eth[0].mac "simulated time" 300
scalar v3_4_routers_2_areas.Router2.eth[0].mac full-duplex 1
scalar v3_4_routers_2_areas.Router2.eth[0].mac "frames/sec sent" 0.22
scalar v3_4_routers_2_areas.Router2.eth[0].mac "frames/sec rcvd" 0.17333333333333334
scalar v3_4_routers_2_areas.Router2.eth[0].mac "bits/sec sent" 195.62666666666667
scalar v3_4_routers_2_areas.Router2.eth[0].mac "bits/sec rcvd" 142.18666666666667
scalar v3_4_routers_2_areas.Router2.eth[0].mac "rx channel idle (%)" 99.99984672
scalar v3_4_routers_2_areas.Router2.eth[0].mac "rx channel utilization (%)" 0.00015328
scalar v3_4_routers_2_areas.Router2.eth[0].mac rxPausePkUnits:count 0
scalar v3_4_routers_2_areas.Router2.eth[0].mac rxPausePkUnits:sum 0
scalar v3_4_routers_2_areas.Router2.eth[0].mac txPausePkUnits:count 0
scalar v3_4_routers_2_areas.Router2.eth[0].mac txPausePkUnits:sum 0
scalar v3_4_routers_2_areas.Router2.eth[0].mac rxPkOk:count 52
scalar v3_4_routers_2_areas.Router2.eth[0].mac rxPkOk:sum(packetBytes) 5332
scalar v3_4_routers_2_areas.Router2.eth[0].mac txPk:count 66
scalar v3_4_routers_2_areas.Router2.eth[0].mac txPk:sum(packetBytes) 7336
scalar v3_4_routers_2_areas.Router2.eth[0].mac packetReceivedFromUpper:count 66
scalar v3_4_routers_2_areas.Router2.eth[0].mac packetReceivedFromUpper:sum(packetBytes) 7336
scalar v3_4_routers_2_areas.Router2.eth[0].mac passedUpPk:count 52
scalar v3_4_routers_2_areas.Router2.eth[0].mac passedUpPk:sum(packetBytes) 5332
scalar v3_4_routers_2_areas.Router2.eth[0].mac packetDropIncorrectlyReceived:count 0
scalar v3_4_routers_2_areas.Router2.eth[0].mac packetDropIncorrectlyReceived:sum(packetBytes) 0
scalar v3_4_routers_2_areas.Router2.eth[0].mac packetDropInterfaceDown:count 0
scalar v3_4_routers_2_areas.Router2.eth[0].mac packetDropInterfaceDown:sum(packetBytes) 0
scalar v3_4_routers_2_areas.Router2.eth[0].mac packetDropNotAddressedToUs:count 0
scalar v3_4_routers_2_areas.Router2.eth[0].mac packetDropNotAddressedToUs:sum(packetBytes) 0
scalar v3_4_routers_2_areas.Router2.eth[0] packetDropInterfaceDown:count 0
scalar v3_4_routers_2_areas.Router2.eth[0] packetDropInterfaceDown:sum(packetBytes) 0
scalar v3_4_routers_2_areas.Router2.eth[0] packetDropNoCarrier:count 0
scalar v3_4_routers_2_areas.Router2.eth[0] packetDropNoCarrier:sum(packetBytes) 0
scalar v3_4_routers_2_areas.Router2.eth[1].queue queueLength:last 0
scalar v3_4_routers_2_areas.Router2.eth[1].queue queueLength:max 8
scalar v3_4_routers_2_areas.Router2.eth[1].queue queueLength:timeavg 2.0415333333333333e-06
scalar v3_4_routers_2_areas.Router2.eth[1].queue queueBitLength:last 0
scalar v3_4_routers_2_areas.Router2.eth[1].queue queueBitLength:max 7680
scalar v3_4_routers_2_areas.Router2.eth[1].queue queueBitLength:timeavg 0.0019232309333333335
scalar v3_4_routers_2_areas.Router2.eth[1].queue outgoingPackets:count 58
scalar v3_4_routers_2_areas.Router2.eth[1].queue outgoingPacketLengths:sum 50976
scalar v3_4_routers_2_areas.Router2.eth[1].queue incomingPackets:count 58
scalar v3_4_routers_2_areas.Router2.eth[1].queue incomingPacketLengths:sum 50976
scalar v3_4_routers_2_areas.Router2.eth[1].queue droppedPacketsQueueOverflow:count 0
scalar v3_4_routers_2_areas.Router2.eth[1].queue droppedPacketLengthsQueueOverflow:sum 0
scalar v3_4_routers_2_areas.Router2.eth[1].mac "simulated time" 300
scalar v3_4_routers_2_areas.Router2.eth[1].mac full-duplex 1
scalar v3_4_routers_2_areas.Router2.eth[1].mac "frames/sec sent" 0.19333333333333333
scalar v3_4_routers_2_areas.Router2.eth[1].mac "frames/sec rcvd" 0.17666666666666667
scalar v3_4_routers_2_areas.Router2.eth[1].mac "bits/sec sent" 169.92
scalar v3_4_routers_2_areas.Router2.eth[1].mac "bits/sec rcvd" 151.73333333333332
scalar v3_4_routers_2_areas.Router2.eth[1].mac "rx channel idle (%)" 99.99983696
scalar v3_4_routers_2_areas.Router2.eth[1].mac "rx channel utilization (%)" 0.00016304
scalar v3_4_routers_2_areas.Router2.eth[1].mac rxPausePkUnits:count 0
scalar v3_4_routers_2_areas.Router2.eth[1].mac rxPausePkUnits:sum 0
scalar v3_4_routers_2_areas.Router2.eth[1].mac txPausePkUnits:count 0
scalar v3_4_routers_2_areas.Router2.eth[1].mac txPausePkUnits:sum 0
scalar v3_4_routers_2_areas.Router2.eth[1].mac rxPkOk:count 53
scalar v3_4_routers_2_areas.Router2.eth[1].mac rxPkOk:sum(packetBytes) 5690
scalar v3_4_routers_2_areas.Router2.eth[1].mac txPk:count 58
scalar v3_4_routers_2_areas.Router2.eth[1].mac txPk:sum(packetBytes) 6372
scalar v3_4_routers_2_areas.Router2.eth[1].mac packetReceivedFromUpper:count 58
scalar v3_4_routers_2_areas.Router2.eth[1].mac packetReceivedFromUpper:sum(packetBytes) 6372
scalar v3_4_routers_2_areas.Router2.eth[1].mac passedUpPk:count 53
scalar v3_4_routers_2_areas.Router2.eth[1].mac passedUpPk:sum(packetBytes) 5690
scalar v3_4_routers_2_areas.Router2.eth[1].mac packetDropIncorrectlyReceived:count 0
scalar v3_4_routers_2_areas.Router2.eth[1].mac packetDropIncorrectlyReceived:sum(packetBytes) 0
scalar v3_4_routers_2_areas.Router2.eth[1].mac packetDropInterfaceDown:count 0
scalar v3_4_routers_2_areas.Router2.eth[1].mac packetDropInterfaceDown:sum(packetBytes) 0
scalar v3_4_routers_2_areas.Router2.eth[1].mac packetDropNotAddressedToUs:count 0
scalar v3_4_routers_2_areas.Router2.eth[1].mac packetDropNotAddressedToUs:sum(packetBytes) 0
scalar v3_4_routers_2_areas.Router2.eth[1] packetDropInterfaceDown:count 0
scalar v3_4_routers_2_areas.Router2.eth[1] packetDropInterfaceDown:sum(packetBytes) 0
scalar v3_4_routers_2_areas.Router2.eth[1] packetDropNoCarrier:count 0
scalar v3_4_routers_2_areas.Router2.eth[1] packetDropNoCarrier:sum(packetBytes) 0
scalar v3_4_routers_2_areas.Router2.ipv4.ip packetDropAddressResolutionFailed:count 0
scalar v3_4_routers_2_areas.Router2.ipv4.ip packetDropAddressResolutionFailed:sum(packetBytes) 0
scalar v3_4_routers_2_areas.Router2.ipv4.ip packetDropHopLimitReached:count 0
scalar v3_4_routers_2_areas.Router2.ipv4.ip packetDropHopLimitReached:sum(packetBytes) 0
scalar v3_4_routers_2_areas.Router2.ipv4.ip packetDropForwardingDisabled:count 0
scalar v3_4_routers_2_areas.Router2.ipv4.ip packetDropForwardingDisabled:sum(packetBytes) 0
scalar v3_4_routers_2_areas.Router2.ipv4.ip packetDropLifetimeExpired:count 0
scalar v3_4_routers_2_areas.Router2.ipv4.ip packetDropLifetimeExpired:sum(packetBytes) 0
scalar v3_4_routers_2_areas.Router2.ipv4.ip packetDropNoInterfaceFound:count 0
scalar v3_4_routers_2_areas.Router2.ipv4.ip packetDropNoInterfaceFound:sum(packetBytes) 0
scalar v3_4_routers_2_areas.Router2.ipv4.ip packetDropNoRouteFound:count 0
scalar v3_4_routers_2_areas.Router2.ipv4.ip packetDropNoRouteFound:sum(packetBytes) 0
scalar v3_4_routers_2_areas.Router2.ipv4.ip packetDropUndefined:count 0
scalar v3_4_routers_2_areas.Router2.ipv4.ip packetDropUndefined:sum(packetBytes) 0
scalar v3_4_routers_2_areas.Router2.ipv4.arp arpResolutionFailed:count 0
scalar v3_4_routers_2_areas.Router2.ipv4.arp arpResolutionCompleted:count 0
scalar v3_4_routers_2_areas.Router2.ipv4.arp arpResolutionInitiated:count 0
scalar v3_4_routers_2_areas.Router2.ipv4.arp arpReplySent:count 0
scalar v3_4_routers_2_areas.Router2.ipv4.arp arpReplySent:sum(packetBytes) 0
scalar v3_4_routers_2_areas.Router2.ipv4.arp arpRequestSent:count 0
scalar v3_4_routers_2_areas.Router2.ipv4.arp arpRequestSent:sum(packetBytes) 0
scalar v3_4_routers_2_areas.Router2.ipv6.neighbourDiscovery dadFailed:count 0
scalar v3_4_routers_2_areas.Router2.ipv6.neighbourDiscovery dadCompleted:count 0
scalar v3_4_routers_2_areas.Router2.ipv6.neighbourDiscovery startDad:count 0
scalar v3_4_routers_2_areas.Router3.ethernet pauseSent:count 0
scalar v3_4_routers_2_areas.Router3.ethernet pauseSent:sum 0
scalar v3_4_routers_2_areas.Router3.ethernet decapPk:count 168
scalar v3_4_routers_2_areas.Router3.ethernet decapPk:sum(packetBytes) 14984
scalar v3_4_routers_2_areas.Router3.ethernet encapPk:count 177
scalar v3_4_routers_2_areas.Router3.ethernet encapPk:sum(packetBytes) 16128
scalar v3_4_routers_2_areas.Router3.lo[0].lo rcvdPkFromHl:count 0
scalar v3_4_routers_2_areas.Router3.lo[0].lo rcvdPkFromHl:sum(packetBytes) 0
scalar v3_4_routers_2_areas.Router3.lo[0].lo passedUpPk:count 0
scalar v3_4_routers_2_areas.Router3.lo[0].lo passedUpPk:sum(packetBytes) 0
scalar v3_4_routers_2_areas.Router3.lo[0] packetDropInterfaceDown:count 0
scalar v3_4_routers_2_areas.Router3.lo[0] packetDropInterfaceDown:sum(packetBytes) 0
scalar v3_4_routers_2_areas.Router3.lo[0] packetDropNoCarrier:count 0
scalar v3_4_routers_2_areas.Router3.lo[0] packetDropNoCarrier:sum(packetBytes) 0
scalar v3_4_routers_2_areas.Router3.eth[0].queue queueLength:last 0
scalar v3_4_routers_2_areas.Router3.eth[0].queue queueLength:max 5
scalar v3_4_routers_2_areas.Router3.eth[0].queue queueLength:timeavg 8.438666666666667e-07
scalar v3_4_routers_2_areas.Router3.eth[0].queue queueBitLength:last 0
scalar v3_4_routers_2_areas.Router3.eth[0].queue queueBitLength:max 4560
scalar v3_4_routers_2_areas.Router3.eth[0].queue queueBitLength:timeavg 0.0007182954666666666
scalar v3_4_routers_2_areas.Router3.eth[0].queue outgoingPackets:count 53
scalar v3_4_routers_2_areas.Router3.eth[0].queue outgoingPacketLengths:sum 45520
scalar v3_4_routers_2_areas.Router3.eth[0].queue incomingPackets:count 53
scalar v3_4_routers_2_areas.Router3.eth[0].queue incomingPacketLengths:sum 45520
scalar v3_4_routers_2_areas.Router3.eth[0].queue droppedPacketsQueueOverflow:count 0
scalar v3_4_routers_2_areas.Router3.eth[0].queue droppedPacketLengthsQueueOverflow:sum 0
scalar v3_4_routers_2_areas.Router3.eth[0].mac "simulated time" 300
scalar v3_4_routers_2_areas.Router3.eth[0].mac full-duplex 1
scalar v3_4_routers_2_areas.Router3.eth[0].mac "frames/sec sent" 0.17666666666666667
scalar v3_4_routers_2_areas.Router3.eth[0].mac "frames/sec rcvd" 0.19333333333333333
scalar v3_4_routers_2_areas.Router3.eth[0].mac "bits/sec sent" 151.73333333333332
scalar v3_4_routers_2_areas.Router3.eth[0].mac "bits/sec rcvd" 169.92
scalar v3_4_routers_2_areas.Router3.eth[0].mac "rx channel idle (%)" 99.99981770666668
scalar v3_4_routers_2_areas.Router3.eth[0].mac "rx channel utilization (%)" 0.00018229333333333333
scalar v3_4_routers_2_areas.Router3.eth[0].mac rxPausePkUnits:count 0
scalar v3_4_routers_2_areas.Router3.eth[0].mac rxPausePkUnits:sum 0
scalar v3_4_routers_2_areas.Router3.eth[0].mac txPausePkUnits:count 0
scalar v3_4_routers_2_areas.Router3.eth[0].mac txPausePkUnits:sum 0
scalar v3_4_routers_2_areas.Router3.eth[0].mac rxPkOk:count 58
scalar v3_4_routers_2_areas.Router3.eth[0].mac rxPkOk:sum(packetBytes) 6372
scalar v3_4_routers_2_areas.Router3.eth[0].mac txPk:count 53
scalar v3_4_routers_2_areas.Router3.eth[0].mac txPk:sum(packetBytes) 5690
scalar v3_4_routers_2_areas.Router3.eth[0].mac packetReceivedFromUpper:count 53
scalar v3_4_routers_2_areas.Router3.eth[0].mac packetReceivedFromUpper:sum(packetBytes) 5690
scalar v3_4_routers_2_areas.Router3.eth[0].mac passedUpPk:count 58
scalar v3_4_routers_2_areas.Router3.eth[0].mac passedUpPk:sum(packetBytes) 6372
scalar v3_4_routers_2_areas.Router3.eth[0].mac packetDropIncorrectlyReceived:count 0
scalar v3_4_routers_2_areas.Router3.eth[0].mac packetDropIncorrectlyReceived:sum(packetBytes) 0
scalar v3_4_routers_2_areas.Router3.eth[0].mac packetDropInterfaceDown:count 0
scalar v3_4_routers_2_areas.Router3.eth[0].mac packetDropInterfaceDown:sum(packetBytes) 0
scalar v3_4_routers_2_areas.Router3.eth[0].mac packetDropNotAddressedToUs:count 0
scalar v3_4_routers_2_areas.Router3.eth[0].mac packetDropNotAddressedToUs:sum(packetBytes) 0
scalar v3_4_routers_2_areas.Router3.eth[0] packetDropInterfaceDown:count 0
scalar v3_4_routers_2_areas.Router3.eth[0] packetDropInterfaceDown:sum(packetBytes) 0
scalar v3_4_routers_2_areas.Router3.eth[0] packetDropNoCarrier:count 0
scalar v3_4_routers_2_areas.Router3.eth[0] packetDropNoCarrier:sum(packetBytes) 0
scalar v3_4_routers_2_areas.Router3.eth[1].queue queueLength:last 0
scalar v3_4_routers_2_areas.Router3.eth[1].queue queueLength:max 5
scalar v3_4_routers_2_areas.Router3.eth[1].queue queueLength:timeavg 1.5422666666666666e-06
scalar v3_4_routers_2_areas.Router3.eth[1].queue queueBitLength:last 0
scalar v3_4_routers_2_areas.Router3.eth[1].queue queueBitLength:max 4848
scalar v3_4_routers_2_areas.Router3.eth[1].queue queueBitLength:timeavg 0.0014460927999999998
scalar v3_4_routers_2_areas.Router3.eth[1].queue outgoingPackets:count 62
scalar v3_4_routers_2_areas.Router3.eth[1].queue outgoingPacketLengths:sum 54496
scalar v3_4_routers_2_areas.Router3.eth[1].queue incomingPackets:count 62
scalar v3_4_routers_2_areas.Router3.eth[1].queue incomingPacketLengths:sum 54496
scalar v3_4_routers_2_areas.Router3.eth[1].queue droppedPacketsQueueOverflow:count 0
scalar v3_4_routers_2_areas.Router3.eth[1].queue droppedPacketLengthsQueueOverflow:sum 0
scalar v3_4_routers_2_areas.Router3.eth[1].mac "simulated time" 300
scalar v3_4_routers_2_areas.Router3.eth[1].mac full-duplex 1
scalar v3_4_routers_2_areas.Router3.eth[1].mac "frames/sec sent" 0.20666666666666667
scalar v3_4_routers_2_areas.Router3.eth[1].mac "frames/sec rcvd" 0.18333333333333332
scalar v3_4_routers_2_areas.Router3.eth[1].mac "bits/sec sent" 181.65333333333334
scalar v3_4_routers_2_areas.Router3.eth[1].mac "bits/sec rcvd" 155.14666666666668
scalar v3_4_routers_2_areas.Router3.eth[1].mac "rx channel idle (%)" 99.99983312
scalar v3_4_routers_2_areas.Router3.eth[1].mac "rx channel utilization (%)" 0.00016688
scalar v3_4_routers_2_areas.Router3.eth[1].mac rxPausePkUnits:count 0
scalar v3_4_routers_2_areas.Router3.eth[1].mac rxPausePkUnits:sum 0
scalar v3_4_routers_2_areas.Router3.eth[1].mac txPausePkUnits:count 0
scalar v3_4_routers_2_areas.Router3.eth[1].mac txPausePkUnits:sum 0
scalar v3_4_routers_2_areas.Router3.eth[1].mac rxPkOk:count 55
scalar v3_4_routers_2_areas.Router3.eth[1].mac rxPkOk:sum(packetBytes) 5818
scalar v3_4_routers_2_areas.Router3.eth[1].mac txPk:count 62
scalar v3_4_routers_2_areas.Router3.eth[1].mac txPk:sum(packetBytes) 6812
scalar v3_4_routers_2_areas.Router3.eth[1].mac packetReceivedFromUpper:count 62
scalar v3_4_routers_2_areas.Router3.eth[1].mac packetReceivedFromUpper:sum(packetBytes) 6812
scalar v3_4_routers_2_areas.Router3.eth[1].mac passedUpPk:count 55
scalar v3_4_routers_2_areas.Router3.eth[1].mac passedUpPk:sum(packetBytes) 5818
scalar v3_4_routers_2_areas.Router3.eth[1].mac packetDropIncorrectlyReceived:count 0
scalar v3_4_routers_2_areas.Router3.eth[1].mac packetDropIncorrectlyReceived:sum(packetBytes) 0
scalar v3_4_routers_2_areas.Router3.eth[1].mac packetDropInterfaceDown:count 0
scalar v3_4_routers_2_areas.Router3.eth[1].mac packetDropInterfaceDown:sum(packetBytes) 0
scalar v3_4_routers_2_areas.Router3.eth[1].mac packetDropNotAddressedToUs:count 0
scalar v3_4_routers_2_areas.Router3.eth[1].mac packetDropNotAddressedToUs:sum(packetBytes) 0
scalar v3_4_routers_2_areas.Router3.eth[1] packetDropInterfaceDown:count 0
scalar v3_4_routers_2_areas.Router3.eth[1] packetDropInterfaceDown:sum(packetBytes) 0
scalar v3_4_routers_2_areas.Router3.eth[1] packetDropNoCarrier:count 0
scalar v3_4_routers_2_areas.Router3.eth[1] packetDropNoCarrier:sum(packetBytes) 0
scalar v3_4_routers_2_areas.Router3.eth[2].queue queueLength:last 0
scalar v3_4_routers_2_areas.Router3.eth[2].queue queueLength:max 5
scalar v3_4_routers_2_areas.Router3.eth[2].queue queueLength:timeavg 1.5550666666666667e-06
scalar v3_4_routers_2_areas.Router3.eth[2].queue queueBitLength:last 0
scalar v3_4_routers_2_areas.Router3.eth[2].queue queueBitLength:max 4848
scalar v3_4_routers_2_areas.Router3.eth[2].queue queueBitLength:timeavg 0.0014440448
scalar v3_4_routers_2_areas.Router3.eth[2].queue outgoingPackets:count 62
scalar v3_4_routers_2_areas.Router3.eth[2].queue outgoingPacketLengths:sum 54496
scalar v3_4_routers_2_areas.Router3.eth[2].queue incomingPackets:count 62
scalar v3_4_routers_2_areas.Router3.eth[2].queue incomingPacketLengths:sum 54496
scalar v3_4_routers_2_areas.Router3.eth[2].queue droppedPacketsQueueOverflow:count 0
scalar v3_4_routers_2_areas.Router3.eth[2].queue droppedPacketLengthsQueueOverflow:sum 0
scalar v3_4_routers_2_areas.Router3.eth[2].mac "simulated time" 300
scalar v3_4_routers_2_areas.Router3.eth[2].mac full-duplex 1
scalar v3_4_routers_2_areas.Router3.eth[2].mac "frames/sec sent" 0.20666666666666667
scalar v3_4_routers_2_areas.Router3.eth[2].mac "frames/sec rcvd" 0.18333333333333332
scalar v3_4_routers_2_areas.Router3.eth[2].mac "bits/sec sent" 181.65333333333334
scalar v3_4_routers_2_areas.Router3.eth[2].mac "bits/sec rcvd" 155.14666666666668
scalar v3_4_routers_2_areas.Router3.eth[2].mac "rx channel idle (%)" 99.99983312
scalar v3_4_routers_2_areas.Router3.eth[2].mac "rx channel utilization (%)" 0.00016688
scalar v3_4_routers_2_areas.Router3.eth[2].mac rxPausePkUnits:count 0
scalar v3_4_routers_2_areas.Router3.eth[2].mac rxPausePkUnits:sum 0
scalar v3_4_routers_2_areas.Router3.eth[2].mac txPausePkUnits:count 0
scalar v3_4_routers_2_areas.Router3.eth[2].mac txPausePkUnits:sum 0
scalar v3_4_routers_2_areas.Router3.eth[2].mac rxPkOk:count 55
scalar v3_4_routers_2_areas.Router3.eth[2].mac rxPkOk:sum(packetBytes) 5818
scalar v3_4_routers_2_areas.Router3.eth[2].mac txPk:count 62
scalar v3_4_routers_2_areas.Router3.eth[2].mac txPk:sum(packetBytes) 6812
scalar v3_4_routers_2_areas.Router3.eth[2].mac packetReceivedFromUpper:count 62
scalar v3_4_routers_2_areas.Router3.eth[2].mac packetReceivedFromUpper:sum(packetBytes) 6812
scalar v3_4_routers_2_areas.Router3.eth[2].mac passedUpPk:count 55
scalar v3_4_routers_2_areas.Router3.eth[2].mac passedUpPk:sum(packetBytes) 5818
scalar v3_4_routers_2_areas.Router3.eth[2].mac packetDropIncorrectlyReceived:count 0
scalar v3_4_routers_2_areas.Router3.eth[2].mac packetDropIncorrectlyReceived:sum(packetBytes) 0
scalar v3_4_routers_2_areas.Router3.eth[2].mac packetDropInterfaceDown:count 0
scalar v3_4_routers_2_areas.Router3.eth[2].mac packetDropInterfaceDown:sum(packetBytes) 0
scalar v3_4_routers_2_areas.Router3.eth[2].mac packetDropNotAddressedToUs:count 0
scalar v3_4_routers_2_areas.Router3.eth[2].mac packetDropNotAddressedToUs:sum(packetBytes) 0
scalar v3_4_routers_2_areas.Router3.eth[2] packetDropInterfaceDown:count 0
scalar v3_4_routers_2_areas.Router3.eth[2] packetDropInterfaceDown:sum(packetBytes) 0
scalar v3_4_routers_2_areas.Router3.eth[2] packetDropNoCarrier:count 0
scalar v3_4_routers_2_areas.Router3.eth[2] packetDropNoCarrier:sum(packetBytes) 0
scalar v3_4_routers_2_areas.Router3.ipv4.ip packetDropAddressResolutionFailed:count 0
scalar v3_4_routers_2_areas.Router3.ipv4.ip packetDropAddressResolutionFailed:sum(packetBytes) 0
scalar v3_4_routers_2_areas.Router3.ipv4.ip packetDropHopLimitReached:count 0
scalar v3_4_routers_2_areas.Router3.ipv4.ip packetDropHopLimitReached:sum(packetBytes) 0
scalar v3_4_routers_2_areas.Router3.ipv4.ip packetDropForwardingDisabled:count 0
scalar v3_4_routers_2_areas.Router3.ipv4.ip packetDropForwardingDisabled:sum(packetBytes) 0
scalar v3_4_routers_2_areas.Router3.ipv4.ip packetDropLifetimeExpired:count 0
scalar v3_4_routers_2_areas.Router3.ipv4.ip packetDropLifetimeExpired:sum(packetBytes) 0
scalar v3_4_routers_2_areas.Router3.ipv4.ip packetDropNoInterfaceFound:count 0
scalar v3_4_routers_2_areas.Router3.ipv4.ip packetDropNoInterfaceFound:sum(packetBytes) 0
scalar v3_4_routers_2_areas.Router3.ipv4.ip packetDropNoRouteFound:count 0
scalar v3_4_routers_2_areas.Router3.ipv4.ip packetDropNoRouteFound:sum(packetBytes) 0
scalar v3_4_routers_2_areas.Router3.ipv4.ip packetDropUndefined:count 0
scalar v3_4_routers_2_areas.Router3.ipv4.ip packetDropUndefined:sum(packetBytes) 0
scalar v3_4_routers_2_areas.Router3.ipv4.arp arpResolutionFailed:count 0
scalar v3_4_routers_2_areas.Router3.ipv4.arp arpResolutionCompleted:count 0
scalar v3_4_routers_2_areas.Router3.ipv4.arp arpResolutionInitiated:count 0
scalar v3_4_routers_2_areas.Router3.ipv4.arp arpReplySent:count 0
scalar v3_4_routers_2_areas.Router3.ipv4.arp arpReplySent:sum(packetBytes) 0
scalar v3_4_routers_2_areas.Router3.ipv4.arp arpRequestSent:count 0
scalar v3_4_routers_2_areas.Router3.ipv4.arp arpRequestSent:sum(packetBytes) 0
scalar v3_4_routers_2_areas.Router3.ipv6.neighbourDiscovery dadFailed:count 0
scalar v3_4_routers_2_areas.Router3.ipv6.neighbourDiscovery dadCompleted:count 0
scalar v3_4_routers_2_areas.Router3.ipv6.neighbourDiscovery startDad:count 0
scalar v3_4_routers_2_areas.Router4.ethernet pauseSent:count 0
scalar v3_4_routers_2_areas.Router4.ethernet pauseSent:sum 0
scalar v3_4_routers_2_areas.Router4.ethernet decapPk:count 62
scalar v3_4_routers_2_areas.Router4.ethernet decapPk:sum(packetBytes) 5696
scalar v3_4_routers_2_areas.Router4.ethernet encapPk:count 55
scalar v3_4_routers_2_areas.Router4.ethernet encapPk:sum(packetBytes) 4828
scalar v3_4_routers_2_areas.Router4.lo[0].lo rcvdPkFromHl:count 0
scalar v3_4_routers_2_areas.Router4.lo[0].lo rcvdPkFromHl:sum(packetBytes) 0
scalar v3_4_routers_2_areas.Router4.lo[0].lo passedUpPk:count 0
scalar v3_4_routers_2_areas.Router4.lo[0].lo passedUpPk:sum(packetBytes) 0
scalar v3_4_routers_2_areas.Router4.lo[0] packetDropInterfaceDown:count 0
scalar v3_4_routers_2_areas.Router4.lo[0] packetDropInterfaceDown:sum(packetBytes) 0
scalar v3_4_routers_2_areas.Router4.lo[0] packetDropNoCarrier:count 0
scalar v3_4_routers_2_areas.Router4.lo[0] packetDropNoCarrier:sum(packetBytes) 0
scalar v3_4_routers_2_areas.Router4.eth[0].queue queueLength:last 0
scalar v3_4_routers_2_areas.Router4.eth[0].queue queueLength:max 5
scalar v3_4_routers_2_areas.Router4.eth[0].queue queueLength:timeavg 9.746e-07
scalar v3_4_routers_2_areas.Router4.eth[0].queue queueBitLength:last 0
scalar v3_4_routers_2_areas.Router4.eth[0].queue queueBitLength:max 4560
scalar v3_4_routers_2_areas.Router4.eth[0].queue queueBitLength:timeavg 0.0008184672
scalar v3_4_routers_2_areas.Router4.eth[0].queue outgoingPackets:count 55
scalar v3_4_routers_2_areas.Router4.eth[0].queue outgoingPacketLengths:sum 46544
scalar v3_4_routers_2_areas.Router4.eth[0].queue incomingPackets:count 55
scalar v3_4_routers_2_areas.Router4.eth[0].queue incomingPacketLengths:sum 46544
scalar v3_4_routers_2_areas.Router4.eth[0].queue droppedPacketsQueueOverflow:count 0
scalar v3_4_routers_2_areas.Router4.eth[0].queue droppedPacketLengthsQueueOverflow:sum 0
scalar v3_4_routers_2_areas.Router4.eth[0].mac "simulated time" 300
scalar v3_4_routers_2_areas.Router4.eth[0].mac full-duplex 1
scalar v3_4_routers_2_areas.Router4.eth[0].mac "frames/sec sent" 0.18333333333333332
scalar v3_4_routers_2_areas.Router4.eth[0].mac "frames/sec rcvd" 0.20666666666666667
scalar v3_4_routers_2_areas.Router4.eth[0].mac "bits/sec sent" 155.14666666666668
scalar v3_4_routers_2_areas.Router4.eth[0].mac "bits/sec rcvd" 181.65333333333334
scalar v3_4_routers_2_areas.Router4.eth[0].mac "rx channel idle (%)" 99.99980511999999
scalar v3_4_routers_2_areas.Router4.eth[0].mac "rx channel utilization (%)" 0.00019487999999999998
scalar v3_4_routers_2_areas.Router4.eth[0].mac rxPausePkUnits:count 0
scalar v3_4_routers_2_areas.Router4.eth[0].mac rxPausePkUnits:sum 0
scalar v3_4_routers_2_areas.Router4.eth[0].mac txPausePkUnits:count 0
scalar v3_4_routers_2_areas.Router4.eth[0].mac txPausePkUnits:sum 0
scalar v3_4_routers_2_areas.Router4.eth[0].mac rxPkOk:count 62
scalar v3_4_routers_2_areas.Router4.eth[0].mac rxPkOk:sum(packetBytes) 6812
scalar v3_4_routers_2_areas.Router4.eth[0].mac txPk:count 55
scalar v3_4_routers_2_areas.Router4.eth[0].mac txPk:sum(packetBytes) 5818
scalar v3_4_routers_2_areas.Router4.eth[0].mac packetReceivedFromUpper:count 55
scalar v3_4_routers_2_areas.Router4.eth[0].mac packetReceivedFromUpper:sum(packetBytes) 5818
scalar v3_4_routers_2_areas.Router4.eth[0].mac passedUpPk:count 62
scalar v3_4_routers_2_areas.Router4.eth[0].mac passedUpPk:sum(packetBytes) 6812
scalar v3_4_routers_2_areas.Router4.eth[0].mac packetDropIncorrectlyReceived:count 0
scalar v3_4_routers_2_areas.Router4.eth[0].mac packetDropIncorrectlyReceived:sum(packetBytes) 0
scalar v3_4_routers_2_areas.Router4.eth[0].mac packetDropInterfaceDown:count 0
scalar v3_4_routers_2_areas.Router4.eth[0].mac packetDropInterfaceDown:sum(packetBytes) 0
scalar v3_4_routers_2_areas.Router4.eth[0].mac packetDropNotAddressedToUs:count 0
scalar v3_4_routers_2_areas.Router4.eth[0].mac packetDropNotAddressedToUs:sum(packetBytes) 0
scalar v3_4_routers_2_areas.Router4.eth[0] packetDropInterfaceDown:count 0
scalar v3_4_routers_2_areas.Router4.eth[0] packetDropInterfaceDown:sum(packetBytes) 0
scalar v3_4_routers_2_areas.Router4.eth[0] packetDropNoCarrier:count 0
scalar v3_4_routers_2_areas.Router4.eth[0] packetDropNoCarrier:sum(packetBytes) 0
scalar v3_4_routers_2_areas.Router4.ipv4.ip packetDropAddressResolutionFailed:count 0
scalar v3_4_routers_2_areas.Router4.ipv4.ip packetDropAddressResolutionFailed:sum(packetBytes) 0
scalar v3_4_routers_2_areas.Router4.ipv4.ip packetDropHopLimitReached:count 0
scalar v3_4_routers_2_areas.Router4.ipv4.ip packetDropHopLimitReached:sum(packetBytes) 0
scalar v3_4_routers_2_areas.Router4.ipv4.ip packetDropForwardingDisabled:count 0
scalar v3_4_routers_2_areas.Router4.ipv4.ip packetDropForwardingDisabled:sum(packetBytes) 0
scalar v3_4_routers_2_areas.Router4.ipv4.ip packetDropLifetimeExpired:count 0
scalar v3_4_routers_2_areas.Router4.ipv4.ip packetDropLifetimeExpired:sum(packetBytes) 0
scalar v3_4_routers_2_areas.Router4.ipv4.ip packetDropNoInterfaceFound:count 0
scalar v3_4_routers_2_areas.Router4.ipv4.ip packetDropNoInterfaceFound:sum(packetBytes) 0
scalar v3_4_routers_2_areas.Router4.ipv4.ip packetDropNoRouteFound:count 0
scalar v3_4_routers_2_areas.Router4.ipv4.ip packetDropNoRouteFound:sum(packetBytes) 0
scalar v3_4_routers_2_areas.Router4.ipv4.ip packetDropUndefined:count 0
scalar v3_4_routers_2_areas.Router4.ipv4.ip packetDropUndefined:sum(packetBytes) 0
scalar v3_4_routers_2_areas.Router4.ipv4.arp arpResolutionFailed:count 0
scalar v3_4_routers_2_areas.Router4.ipv4.arp arpResolutionCompleted:count 0
scalar v3_4_routers_2_areas.Router4.ipv4.arp arpResolutionInitiated:count 0
scalar v3_4_routers_2_areas.Router4.ipv4.arp arpReplySent:count 0
scalar v3_4_routers_2_areas.Router4.ipv4.arp arpReplySent:sum(packetBytes) 0
scalar v3_4_routers_2_areas.Router4.ipv4.arp arpRequestSent:count 0
scalar v3_4_routers_2_areas.Router4.ipv4.arp arpRequestSent:sum(packetBytes) 0
scalar v3_4_routers_2_areas.Router4.ipv6.neighbourDiscovery dadFailed:count 0
scalar v3_4_routers_2_areas.Router4.ipv6.neighbourDiscovery dadCompleted:count 0
scalar v3_4_routers_2_areas.Router4.ipv6.neighbourDiscovery startDad:count 0
scalar v3_4_routers_2_areas.Router5.ethernet pauseSent:count 0
scalar v3_4_routers_2_areas.Router5.ethernet pauseSent:sum 0
scalar v3_4_routers_2_areas.Router5.ethernet decapPk:count 62
scalar v3_4_routers_2_areas.Router5.ethernet decapPk:sum(packetBytes) 5696
scalar v3_4_routers_2_areas.Router5.ethernet encapPk:count 55
scalar v3_4_routers_2_areas.Router5.ethernet encapPk:sum(packetBytes) 4828
scalar v3_4_routers_2_areas.Router5.lo[0].lo rcvdPkFromHl:count 0
scalar v3_4_routers_2_areas.Router5.lo[0].lo rcvdPkFromHl:sum(packetBytes) 0
scalar v3_4_routers_2_areas.Router5.lo[0].lo passedUpPk:count 0
scalar v3_4_routers_2_areas.Router5.lo[0].lo passedUpPk:sum(packetBytes) 0
scalar v3_4_routers_2_areas.Router5.lo[0] packetDropInterfaceDown:count 0
scalar v3_4_routers_2_areas.Router5.lo[0] packetDropInterfaceDown:sum(packetBytes) 0
scalar v3_4_routers_2_areas.Router5.lo[0] packetDropNoCarrier:count 0
scalar v3_4_routers_2_areas.Router5.lo[0] packetDropNoCarrier:sum(packetBytes) 0
scalar v3_4_routers_2_areas.Router5.eth[0].queue queueLength:last 0
scalar v3_4_routers_2_areas.Router5.eth[0].queue queueLength:max 5
scalar v3_4_routers_2_areas.Router5.eth[0].queue queueLength:timeavg 9.746e-07
scalar v3_4_routers_2_areas.Router5.eth[0].queue queueBitLength:last 0
scalar v3_4_routers_2_areas.Router5.eth[0].queue queueBitLength:max 4560
scalar v3_4_routers_2_areas.Router5.eth[0].queue queueBitLength:timeavg 0.0008184672
scalar v3_4_routers_2_areas.Router5.eth[0].queue outgoingPackets:count 55
scalar v3_4_routers_2_areas.Router5.eth[0].queue outgoingPacketLengths:sum 46544
scalar v3_4_routers_2_areas.Router5.eth[0].queue incomingPackets:count 55
scalar v3_4_routers_2_areas.Router5.eth[0].queue incomingPacketLengths:sum 46544
scalar v3_4_routers_2_areas.Router5.eth[0].queue droppedPacketsQueueOverflow:count 0
scalar v3_4_routers_2_areas.Router5.eth[0].queue droppedPacketLengthsQueueOverflow:sum 0
scalar v3_4_routers_2_areas.Router5.eth[0].mac "simulated time" 300
scalar v3_4_routers_2_areas.Router5.eth[0].mac full-duplex 1
scalar v3_4_routers_2_areas.Router5.eth[0].mac "frames/sec sent" 0.18333333333333332
scalar v3_4_routers_2_areas.Router5.eth[0].mac "frames/sec rcvd" 0.20666666666666667
scalar v3_4_routers_2_areas.Router5.eth[0].mac "bits/sec sent" 155.14666666666668
scalar v3_4_routers_2_areas.Router5.eth[0].mac "bits/sec rcvd" 181.65333333333334
scalar v3_4_routers_2_areas.Router5.eth[0].mac "rx channel idle (%)" 99.99980511999999
scalar v3_4_routers_2_areas.Router5.eth[0].mac "rx channel utilization (%)" 0.00019487999999999998
scalar v3_4_routers_2_areas.Router5.eth[0].mac rxPausePkUnits:count 0
scalar v3_4_routers_2_areas.Router5.eth[0].mac rxPausePkUnits:sum 0
scalar v3_4_routers_2_areas.Router5.eth[0].mac txPausePkUnits:count 0
scalar v3_4_routers_2_areas.Router5.eth[0].mac txPausePkUnits:sum 0
scalar v3_4_routers_2_areas.Router5.eth[0].mac rxPkOk:count 62
scalar v3_4_routers_2_areas.Router5.eth[0].mac rxPkOk:sum(packetBytes) 6812
scalar v3_4_routers_2_areas.Router5.eth[0].mac txPk:count 55
scalar v3_4_routers_2_areas.Router5.eth[0].mac txPk:sum(packetBytes) 5818
scalar v3_4_routers_2_areas.Router5.eth[0].mac packetReceivedFromUpper:count 55
scalar v3_4_routers_2_areas.Router5.eth[0].mac packetReceivedFromUpper:sum(packetBytes) 5818
scalar v3_4_routers_2_areas.Router5.eth[0].mac passedUpPk:count 62
scalar v3_4_routers_2_areas.Router5.eth[0].mac passedUpPk:sum(packetBytes) 6812
scalar v3_4_routers_2_areas.Router5.eth[0].mac packetDropIncorrectlyReceived:count 0
scalar v3_4_routers_2_areas.Router5.eth[0].mac packetDropIncorrectlyReceived:sum(packetBytes) 0
scalar v3_4_routers_2_areas.Router5.eth[0].mac packetDropInterfaceDown:count 0
scalar v3_4_routers_2_areas.Router5.eth[0].mac packetDropInterfaceDown:sum(packetBytes) 0
scalar v3_4_routers_2_areas.Router5.eth[0].mac packetDropNotAddressedToUs:count 0
scalar v3_4_routers_2_areas.Router5.eth[0].mac packetDropNotAddressedToUs:sum(packetBytes) 0
scalar v3_4_routers_2_areas.Router5.eth[0] packetDropInterfaceDown:count 0
scalar v3_4_routers_2_areas.Router5.eth[0] packetDropInterfaceDown:sum(packetBytes) 0
scalar v3_4_routers_2_areas.Router5.eth[0] packetDropNoCarrier:count 0
scalar v3_4_routers_2_areas.Router5.eth[0] packetDropNoCarrier:sum(packetBytes) 0
scalar v3_4_routers_2_areas.Router5.ipv4.ip packetDropAddressResolutionFailed:count 0
scalar v3_4_routers_2_areas.Router5.ipv4.ip packetDropAddressResolutionFailed:sum(packetBytes) 0
scalar v3_4_routers_2_areas.Router5.ipv4.ip packetDropHopLimitReached:count 0
scalar v3_4_routers_2_areas.Router5.ipv4.ip packetDropHopLimitReached:sum(packetBytes) 0
scalar v3_4_routers_2_areas.Router5.ipv4.ip packetDropForwardingDisabled:count 0
scalar v3_4_routers_2_areas.Router5.ipv4.ip packetDropForwardingDisabled:sum(packetBytes) 0
scalar v3_4_routers_2_areas.Router5.ipv4.ip packetDropLifetimeExpired:count 0
scalar v3_4_routers_2_areas.Router5.ipv4.ip packetDropLifetimeExpired:sum(packetBytes) 0
scalar v3_4_routers_2_areas.Router5.ipv4.ip packetDropNoInterfaceFound:count 0
scalar v3_4_routers_2_areas.Router5.ipv4.ip packetDropNoInterfaceFound:sum(packetBytes) 0
scalar v3_4_routers_2_areas.Router5.ipv4.ip packetDropNoRouteFound:count 0
scalar v3_4_routers_2_areas.Router5.ipv4.ip packetDropNoRouteFound:sum(packetBytes) 0
scalar v3_4_routers_2_areas.Router5.ipv4.ip packetDropUndefined:count 0
scalar v3_4_routers_2_areas.Router5.ipv4.ip packetDropUndefined:sum(packetBytes) 0
scalar v3_4_routers_2_areas.Router5.ipv4.arp arpResolutionFailed:count 0
scalar v3_4_routers_2_areas.Router5.ipv4.arp arpResolutionCompleted:count 0
scalar v3_4_routers_2_areas.Router5.ipv4.arp arpResolutionInitiated:count 0
scalar v3_4_routers_2_areas.Router5.ipv4.arp arpReplySent:count 0
scalar v3_4_routers_2_areas.Router5.ipv4.arp arpReplySent:sum(packetBytes) 0
scalar v3_4_routers_2_areas.Router5.ipv4.arp arpRequestSent:count 0
scalar v3_4_routers_2_areas.Router5.ipv4.arp arpRequestSent:sum(packetBytes) 0
scalar v3_4_routers_2_areas.Router5.ipv6.neighbourDiscovery dadFailed:count 0
scalar v3_4_routers_2_areas.Router5.ipv6.neighbourDiscovery dadCompleted:count 0
scalar v3_4_routers_2_areas.Router5.ipv6.neighbourDiscovery startDad:count 0
scalar v3_4_routers_2_areas.Router1.eth[0].queue queueingTime:histogram:count 52
scalar v3_4_routers_2_areas.Router1.eth[0].queue queueingTime:histogram:sumweights 52
scalar v3_4_routers_2_areas.Router1.eth[0].queue queueingTime:histogram:mean 3.5092307692307694e-06
scalar v3_4_routers_2_areas.Router1.eth[0].queue queueingTime:histogram:stddev 7.874437632246046e-06
scalar v3_4_routers_2_areas.Router1.eth[0].queue queueingTime:histogram:min 0
scalar v3_4_routers_2_areas.Router1.eth[0].queue queueingTime:histogram:max 3.6479999999999996e-05
scalar v3_4_routers_2_areas.Router1.eth[0].queue queueingTime:histogram:numbins 46
scalar v3_4_routers_2_areas.Router1.eth[0].queue queueingTime:histogram:rangemin 0
scalar v3_4_routers_2_areas.Router1.eth[0].queue queueingTime:histogram:rangemax 4.600000000000001e-05
scalar v3_4_routers_2_areas.Router1.eth[0].queue queueingTime:histogram:underflows 0
scalar v3_4_routers_2_areas.Router1.eth[0].queue queueingTime:histogram:overflows 0
scalar v3_4_routers_2_areas.Router1.eth[0].queue outgoingPacketLengths:histogram:count 52
scalar v3_4_routers_2_areas.Router1.eth[0].queue outgoingPacketLengths:histogram:sumweights 52
scalar v3_4_routers_2_areas.Router1.eth[0].queue outgoingPacketLengths:histogram:mean 820.3076923076923
scalar v3_4_routers_2_areas.Router1.eth[0].queue outgoingPacketLengths:histogram:stddev 136.80005997899434
scalar v3_4_routers_2_areas.Router1.eth[0].queue outgoingPacketLengths:histogram:min 688
scalar v3_4_routers_2_areas.Router1.eth[0].queue outgoingPacketLengths:histogram:max 1616
scalar v3_4_routers_2_areas.Router1.eth[0].queue outgoingPacketLengths:histogram:numbins 71
scalar v3_4_routers_2_areas.Router1.eth[0].queue outgoingPacketLengths:histogram:rangemin 440
scalar v3_4_routers_2_areas.Router1.eth[0].queue outgoingPacketLengths:histogram:rangemax 1860
scalar v3_4_routers_2_areas.Router1.eth[0].queue outgoingPacketLengths:histogram:underflows 0
scalar v3_4_routers_2_areas.Router1.eth[0].queue outgoingPacketLengths:histogram:overflows 0
scalar v3_4_routers_2_areas.Router1.eth[0].queue flowQueueingTime:histogram:count 0
scalar v3_4_routers_2_areas.Router1.eth[0].queue flowQueueingTime:histogram:sumweights 0
scalar v3_4_routers_2_areas.Router1.eth[0].queue flowQueueingTime:histogram:mean nan
scalar v3_4_routers_2_areas.Router1.eth[0].queue flowQueueingTime:histogram:stddev nan
scalar v3_4_routers_2_areas.Router1.eth[0].queue flowQueueingTime:histogram:min nan
scalar v3_4_routers_2_areas.Router1.eth[0].queue flowQueueingTime:histogram:max nan
scalar v3_4_routers_2_areas.Router1.eth[0].queue flowQueueingTime:histogram:numbins 1
scalar v3_4_routers_2_areas.Router1.eth[0].queue flowQueueingTime:histogram:rangemin 0
scalar v3_4_routers_2_areas.Router1.eth[0].queue flowQueueingTime:histogram:rangemax 1
scalar v3_4_routers_2_areas.Router1.eth[0].queue flowQueueingTime:histogram:underflows 0
scalar v3_4_routers_2_areas.Router1.eth[0].queue flowQueueingTime:histogram:overflows 0
scalar v3_4_routers_2_areas.Router1.eth[0].queue incomingPacketLengths:histogram:count 52
scalar v3_4_routers_2_areas.Router1.eth[0].queue incomingPacketLengths:histogram:sumweights 52
scalar v3_4_routers_2_areas.Router1.eth[0].queue incomingPacketLengths:histogram:mean 820.3076923076923
scalar v3_4_routers_2_areas.Router1.eth[0].queue incomingPacketLengths:histogram:stddev 136.80005997899434
scalar v3_4_routers_2_areas.Router1.eth[0].queue incomingPacketLengths:histogram:min 688
scalar v3_4_routers_2_areas.Router1.eth[0].queue incomingPacketLengths:histogram:max 1616
scalar v3_4_routers_2_areas.Router1.eth[0].queue incomingPacketLengths:histogram:numbins 71
scalar v3_4_routers_2_areas.Router1.eth[0].queue incomingPacketLengths:histogram:rangemin 440
scalar v3_4_routers_2_areas.Router1.eth[0].queue incomingPacketLengths:histogram:rangemax 1860
scalar v3_4_routers_2_areas.Router1.eth[0].queue incomingPacketLengths:histogram:underflows 0
scalar v3_4_routers_2_areas.Router1.eth[0].queue incomingPacketLengths:histogram:overflows 0
scalar v3_4_routers_2_areas.Router1.eth[0].mac throughput:histogram:count 3000
scalar v3_4_routers_2_areas.Router1.eth[0].mac throughput:histogram:sumweights 3000
scalar v3_4_routers_2_areas.Router1.eth[0].mac throughput:histogram:mean 153.28
scalar v3_4_routers_2_areas.Router1.eth[0].mac throughput:histogram:stddev 1935.8966415769607
scalar v3_4_routers_2_areas.Router1.eth[0].mac throughput:histogram:min 0
scalar v3_4_routers_2_areas.Router1.eth[0].mac throughput:histogram:max 70880
scalar v3_4_routers_2_areas.Router1.eth[0].mac throughput:histogram:numbins 60
scalar v3_4_routers_2_areas.Router1.eth[0].mac throughput:histogram:rangemin 0
scalar v3_4_routers_2_areas.Router1.eth[0].mac throughput:histogram:rangemax 72000
scalar v3_4_routers_2_areas.Router1.eth[0].mac throughput:histogram:underflows 0
scalar v3_4_routers_2_areas.Router1.eth[0].mac throughput:histogram:overflows 0
scalar v3_4_routers_2_areas.Router1.eth[0].mac utilization:histogram:count 3000
scalar v3_4_routers_2_areas.Router1.eth[0].mac utilization:histogram:sumweights 3000
scalar v3_4_routers_2_areas.Router1.eth[0].mac utilization:histogram:mean 0.00015328000000000002
scalar v3_4_routers_2_areas.Router1.eth[0].mac utilization:histogram:stddev 0.0019358966415769611
scalar v3_4_routers_2_areas.Router1.eth[0].mac utilization:histogram:min 0
scalar v3_4_routers_2_areas.Router1.eth[0].mac utilization:histogram:max 0.07088000000000001
scalar v3_4_routers_2_areas.Router1.eth[0].mac utilization:histogram:numbins 60
scalar v3_4_routers_2_areas.Router1.eth[0].mac utilization:histogram:rangemin 0
scalar v3_4_routers_2_areas.Router1.eth[0].mac utilization:histogram:rangemax 0.07200000000000001
scalar v3_4_routers_2_areas.Router1.eth[0].mac utilization:histogram:underflows 0
scalar v3_4_routers_2_areas.Router1.eth[0].mac utilization:histogram:overflows 0
scalar v3_4_routers_2_areas.Router2.eth[0].queue queueingTime:histogram:count 66
scalar v3_4_routers_2_areas.Router2.eth[0].queue queueingTime:histogram:sumweights 66
scalar v3_4_routers_2_areas.Router2.eth[0].queue queueingTime:histogram:mean 1.5408484848484846e-05
scalar v3_4_routers_2_areas.Router2.eth[0].queue queueingTime:histogram:stddev 2.9930275088942412e-05
scalar v3_4_routers_2_areas.Router2.eth[0].queue queueingTime:histogram:min 0
scalar v3_4_routers_2_areas.Router2.eth[0].queue queueingTime:histogram:max 0.00010118
scalar v3_4_routers_2_areas.Router2.eth[0].queue queueingTime:histogram:numbins 64
scalar v3_4_routers_2_areas.Router2.eth[0].queue queueingTime:histogram:rangemin 0
scalar v3_4_routers_2_areas.Router2.eth[0].queue queueingTime:histogram:rangemax 0.00012800000000000002
scalar v3_4_routers_2_areas.Router2.eth[0].queue queueingTime:histogram:underflows 0
scalar v3_4_routers_2_areas.Router2.eth[0].queue queueingTime:histogram:overflows 0
scalar v3_4_routers_2_areas.Router2.eth[0].queue outgoingPacketLengths:histogram:count 66
scalar v3_4_routers_2_areas.Router2.eth[0].queue outgoingPacketLengths:histogram:sumweights 66
scalar v3_4_routers_2_areas.Router2.eth[0].queue outgoingPacketLengths:histogram:mean 889.2121212121212
scalar v3_4_routers_2_areas.Router2.eth[0].queue outgoingPacketLengths:histogram:stddev 282.04525087851334
scalar v3_4_routers_2_areas.Router2.eth[0].queue outgoingPacketLengths:histogram:min 688
scalar v3_4_routers_2_areas.Router2.eth[0].queue outgoingPacketLengths:histogram:max 2640
scalar v3_4_routers_2_areas.Router2.eth[0].queue outgoingPacketLengths:histogram:numbins 59
scalar v3_4_routers_2_areas.Router2.eth[0].queue outgoingPacketLengths:histogram:rangemin 200
scalar v3_4_routers_2_areas.Router2.eth[0].queue outgoingPacketLengths:histogram:rangemax 3150
scalar v3_4_routers_2_areas.Router2.eth[0].queue outgoingPacketLengths:histogram:underflows 0
scalar v3_4_routers_2_areas.Router2.eth[0].queue outgoingPacketLengths:histogram:overflows 0
scalar v3_4_routers_2_areas.Router2.eth[0].queue flowQueueingTime:histogram:count 0
scalar v3_4_routers_2_areas.Router2.eth[0].queue flowQueueingTime:histogram:sumweights 0
scalar v3_4_routers_2_areas.Router2.eth[0].queue flowQueueingTime:histogram:mean nan
scalar v3_4_routers_2_areas.Router2.eth[0].queue flowQueueingTime:histogram:stddev nan
scalar v3_4_routers_2_areas.Router2.eth[0].queue flowQueueingTime:histogram:min nan
scalar v3_4_routers_2_areas.Router2.eth[0].queue flowQueueingTime:histogram:max nan
scalar v3_4_routers_2_areas.Router2.eth[0].queue flowQueueingTime:histogram:numbins 1
scalar v3_4_routers_2_areas.Router2.eth[0].queue flowQueueingTime:histogram:rangemin 0
scalar v3_4_routers_2_areas.Router2.eth[0].queue flowQueueingTime:histogram:rangemax 1
scalar v3_4_routers_2_areas.Router2.eth[0].queue flowQueueingTime:histogram:underflows 0
scalar v3_4_routers_2_areas.Router2.eth[0].queue flowQueueingTime:histogram:overflows 0
scalar v3_4_routers_2_areas.Router2.eth[0].queue incomingPacketLengths:histogram:count 66
scalar v3_4_routers_2_areas.Router2.eth[0].queue incomingPacketLengths:histogram:sumweights 66
scalar v3_4_routers_2_areas.Router2.eth[0].queue incomingPacketLengths:histogram:mean 889.2121212121212
scalar v3_4_routers_2_areas.Router2.eth[0].queue incomingPacketLengths:histogram:stddev 282.04525087851334
scalar v3_4_routers_2_areas.Router2.eth[0].queue incomingPacketLengths:histogram:min 688
scalar v3_4_routers_2_areas.Router2.eth[0].queue incomingPacketLengths:histogram:max 2640
scalar v3_4_routers_2_areas.Router2.eth[0].queue incomingPacketLengths:histogram:numbins 59
scalar v3_4_routers_2_areas.Router2.eth[0].queue incomingPacketLengths:histogram:rangemin 200
scalar v3_4_routers_2_areas.Router2.eth[0].queue incomingPacketLengths:histogram:rangemax 3150
scalar v3_4_routers_2_areas.Router2.eth[0].queue incomingPacketLengths:histogram:underflows 0
scalar v3_4_routers_2_areas.Router2.eth[0].queue incomingPacketLengths:histogram:overflows 0
scalar v3_4_routers_2_areas.Router2.eth[0].mac throughput:histogram:count 3000
scalar v3_4_routers_2_areas.Router2.eth[0].mac throughput:histogram:sumweights 3000
scalar v3_4_routers_2_areas.Router2.eth[0].mac throughput:histogram:mean 209.70666666666668
scalar v3_4_routers_2_areas.Router2.eth[0].mac throughput:histogram:stddev 3611.2226494125366
scalar v3_4_routers_2_areas.Router2.eth[0].mac throughput:histogram:min 0
scalar v3_4_routers_2_areas.Router2.eth[0].mac throughput:histogram:max 140480
scalar v3_4_routers_2_areas.Router2.eth[0].mac throughput:histogram:numbins 71
scalar v3_4_routers_2_areas.Router2.eth[0].mac throughput:histogram:rangemin 0
scalar v3_4_routers_2_areas.Router2.eth[0].mac throughput:histogram:rangemax 142000
scalar v3_4_routers_2_areas.Router2.eth[0].mac throughput:histogram:underflows 0
scalar v3_4_routers_2_areas.Router2.eth[0].mac throughput:histogram:overflows 0
scalar v3_4_routers_2_areas.Router2.eth[0].mac utilization:histogram:count 3000
scalar v3_4_routers_2_areas.Router2.eth[0].mac utilization:histogram:sumweights 3000
scalar v3_4_routers_2_areas.Router2.eth[0].mac utilization:histogram:mean 0.00020970666666666668
scalar v3_4_routers_2_areas.Router2.eth[0].mac utilization:histogram:stddev 0.003611222649412536
scalar v3_4_routers_2_areas.Router2.eth[0].mac utilization:histogram:min 0
scalar v3_4_routers_2_areas.Router2.eth[0].mac utilization:histogram:max 0.14048
scalar v3_4_routers_2_areas.Router2.eth[0].mac utilization:histogram:numbins 71
scalar v3_4_routers_2_areas.Router2.eth[0].mac utilization:histogram:rangemin 0
scalar v3_4_routers_2_areas.Router2.eth[0].mac utilization:histogram:rangemax 0.14200000000000002
scalar v3_4_routers_2_areas.Router2.eth[0].mac utilization:histogram:underflows 0
scalar v3_4_routers_2_areas.Router2.eth[0].mac utilization:histogram:overflows 0
scalar v3_4_routers_2_areas.Router2.eth[1].queue queueingTime:histogram:count 58
scalar v3_4_routers_2_areas.Router2.eth[1].queue queueingTime:histogram:sumweights 58
scalar v3_4_routers_2_areas.Router2.eth[1].queue queueingTime:histogram:mean 1.0559655172413794e-05
scalar v3_4_routers_2_areas.Router2.eth[1].queue queueingTime:histogram:stddev 2.223125806081894e-05
scalar v3_4_routers_2_areas.Router2.eth[1].queue queueingTime:histogram:min 0
scalar v3_4_routers_2_areas.Router2.eth[1].queue queueingTime:histogram:max 9.12e-05
scalar v3_4_routers_2_areas.Router2.eth[1].queue queueingTime:histogram:numbins 57
scalar v3_4_routers_2_areas.Router2.eth[1].queue queueingTime:histogram:rangemin 0
scalar v3_4_routers_2_areas.Router2.eth[1].queue queueingTime:histogram:rangemax 0.00011400000000000002
scalar v3_4_routers_2_areas.Router2.eth[1].queue queueingTime:histogram:underflows 0
scalar v3_4_routers_2_areas.Router2.eth[1].queue queueingTime:histogram:overflows 0
scalar v3_4_routers_2_areas.Router2.eth[1].queue outgoingPacketLengths:histogram:count 58
scalar v3_4_routers_2_areas.Router2.eth[1].queue outgoingPacketLengths:histogram:sumweights 58
scalar v3_4_routers_2_areas.Router2.eth[1].queue outgoingPacketLengths:histogram:mean 878.8965517241379
scalar v3_4_routers_2_areas.Router2.eth[1].queue outgoingPacketLengths:histogram:stddev 228.87648470530718
scalar v3_4_routers_2_areas.Router2.eth[1].queue outgoingPacketLengths:histogram:min 688
scalar v3_4_routers_2_areas.Router2.eth[1].queue outgoingPacketLengths:histogram:max 2032
scalar v3_4_routers_2_areas.Router2.eth[1].queue outgoingPacketLengths:histogram:numbins 102
scalar v3_4_routers_2_areas.Router2.eth[1].queue outgoingPacketLengths:histogram:rangemin 340
scalar v3_4_routers_2_areas.Router2.eth[1].queue outgoingPacketLengths:histogram:rangemax 2380
scalar v3_4_routers_2_areas.Router2.eth[1].queue outgoingPacketLengths:histogram:underflows 0
scalar v3_4_routers_2_areas.Router2.eth[1].queue outgoingPacketLengths:histogram:overflows 0
scalar v3_4_routers_2_areas.Router2.eth[1].queue flowQueueingTime:histogram:count 0
scalar v3_4_routers_2_areas.Router2.eth[1].queue flowQueueingTime:histogram:sumweights 0
scalar v3_4_routers_2_areas.Router2.eth[1].queue flowQueueingTime:histogram:mean nan
scalar v3_4_routers_2_areas.Router2.eth[1].queue flowQueueingTime:histogram:stddev nan
scalar v3_4_routers_2_areas.Router2.eth[1].queue flowQueueingTime:histogram:min nan
scalar v3_4_routers_2_areas.Router2.eth[1].queue flowQueueingTime:histogram:max nan
scalar v3_4_routers_2_areas.Router2.eth[1].queue flowQueueingTime:histogram:numbins 1
scalar v3_4_routers_2_areas.Router2.eth[1].queue flowQueueingTime:histogram:rangemin 0
scalar v3_4_routers_2_areas.Router2.eth[1].queue flowQueueingTime:histogram:rangemax 1
scalar v3_4_routers_2_areas.Router2.eth[1].queue flowQueueingTime:histogram:underflows 0
scalar v3_4_routers_2_areas.Router2.eth[1].queue flowQueueingTime:histogram:overflows 0
scalar v3_4_routers_2_areas.Router2.eth[1].queue incomingPacketLengths:histogram:count 58
scalar v3_4_routers_2_areas.Router2.eth[1].queue incomingPacketLengths:histogram:sumweights 58
scalar v3_4_routers_2_areas.Router2.eth[1].queue incomingPacketLengths:histogram:mean 878.8965517241379
scalar v3_4_routers_2_areas.Router2.eth[1].queue incomingPacketLengths:histogram:stddev 228.87648470530718
scalar v3_4_routers_2_areas.Router2.eth[1].queue incomingPacketLengths:histogram:min 688
scalar v3_4_routers_2_areas.Router2.eth[1].queue incomingPacketLengths:histogram:max 2032
scalar v3_4_routers_2_areas.Router2.eth[1].queue incomingPacketLengths:histogram:numbins 102
scalar v3_4_routers_2_areas.Router2.eth[1].queue incomingPacketLengths:histogram:rangemin 340
scalar v3_4_routers_2_areas.Router2.eth[1].queue incomingPacketLengths:histogram:rangemax 2380
scalar v3_4_routers_2_areas.Router2.eth[1].queue incomingPacketLengths:histogram:underflows 0
scalar v3_4_routers_2_areas.Router2.eth[1].queue incomingPacketLengths:histogram:overflows 0
scalar v3_4_routers_2_areas.Router2.eth[1].mac throughput:histogram:count 3000
scalar v3_4_routers_2_areas.Router2.eth[1].mac throughput:histogram:sumweights 3000
scalar v3_4_routers_2_areas.Router2.eth[1].mac throughput:histogram:mean 182.29333333333332
scalar v3_4_routers_2_areas.Router2.eth[1].mac throughput:histogram:stddev 2899.9814547858045
scalar v3_4_routers_2_areas.Router2.eth[1].mac throughput:histogram:min 0
scalar v3_4_routers_2_areas.Router2.eth[1].mac throughput:histogram:max 102080.00000000001
scalar v3_4_routers_2_areas.Router2.eth[1].mac throughput:histogram:numbins 57
scalar v3_4_routers_2_areas.Router2.eth[1].mac throughput:histogram:rangemin 0
scalar v3_4_routers_2_areas.Router2.eth[1].mac throughput:histogram:rangemax 102600
scalar v3_4_routers_2_areas.Router2.eth[1].mac throughput:histogram:underflows 0
scalar v3_4_routers_2_areas.Router2.eth[1].mac throughput:histogram:overflows 0
scalar v3_4_routers_2_areas.Router2.eth[1].mac utilization:histogram:count 3000
scalar v3_4_routers_2_areas.Router2.eth[1].mac utilization:histogram:sumweights 3000
scalar v3_4_routers_2_areas.Router2.eth[1].mac utilization:histogram:mean 0.00018229333333333333
scalar v3_4_routers_2_areas.Router2.eth[1].mac utilization:histogram:stddev 0.002899981454785804
scalar v3_4_routers_2_areas.Router2.eth[1].mac utilization:histogram:min 0
scalar v3_4_routers_2_areas.Router2.eth[1].mac utilization:histogram:max 0.10207999999999999
scalar v3_4_routers_2_areas.Router2.eth[1].mac utilization:histogram:numbins 57
scalar v3_4_routers_2_areas.Router2.eth[1].mac utilization:histogram:rangemin 0
scalar v3_4_routers_2_areas.Router2.eth[1].mac utilization:histogram:rangemax 0.1026
scalar v3_4_routers_2_areas.Router2.eth[1].mac utilization:histogram:underflows 0
scalar v3_4_routers_2_areas.Router2.eth[1].mac utilization:histogram:overflows 0
scalar v3_4_routers_2_areas.Router3.eth[0].queue queueingTime:histogram:count 53
scalar v3_4_routers_2_areas.Router3.eth[0].queue queueingTime:histogram:sumweights 53
scalar v3_4_routers_2_areas.Router3.eth[0].queue queueingTime:histogram:mean 4.776603773584905e-06
scalar v3_4_routers_2_areas.Router3.eth[0].queue queueingTime:histogram:stddev 1.2225802937827882e-05
scalar v3_4_routers_2_areas.Router3.eth[0].queue queueingTime:histogram:min 0
scalar v3_4_routers_2_areas.Router3.eth[0].queue queueingTime:histogram:max 5.52e-05
scalar v3_4_routers_2_areas.Router3.eth[0].queue queueingTime:histogram:numbins 69
scalar v3_4_routers_2_areas.Router3.eth[0].queue queueingTime:histogram:rangemin 0
scalar v3_4_routers_2_areas.Router3.eth[0].queue queueingTime:histogram:rangemax 6.900000000000001e-05
scalar v3_4_routers_2_areas.Router3.eth[0].queue queueingTime:histogram:underflows 0
scalar v3_4_routers_2_areas.Router3.eth[0].queue queueingTime:histogram:overflows 0
scalar v3_4_routers_2_areas.Router3.eth[0].queue outgoingPacketLengths:histogram:count 53
scalar v3_4_routers_2_areas.Router3.eth[0].queue outgoingPacketLengths:histogram:sumweights 53
scalar v3_4_routers_2_areas.Router3.eth[0].queue outgoingPacketLengths:histogram:mean 858.8679245283018
scalar v3_4_routers_2_areas.Router3.eth[0].queue outgoingPacketLengths:histogram:stddev 240.85536976303132
scalar v3_4_routers_2_areas.Router3.eth[0].queue outgoingPacketLengths:histogram:min 688
scalar v3_4_routers_2_areas.Router3.eth[0].queue outgoingPacketLengths:histogram:max 2192
scalar v3_4_routers_2_areas.Router3.eth[0].queue outgoingPacketLengths:histogram:numbins 46
scalar v3_4_routers_2_areas.Router3.eth[0].queue outgoingPacketLengths:histogram:rangemin 300
scalar v3_4_routers_2_areas.Router3.eth[0].queue outgoingPacketLengths:histogram:rangemax 2600
scalar v3_4_routers_2_areas.Router3.eth[0].queue outgoingPacketLengths:histogram:underflows 0
scalar v3_4_routers_2_areas.Router3.eth[0].queue outgoingPacketLengths:histogram:overflows 0
scalar v3_4_routers_2_areas.Router3.eth[0].queue flowQueueingTime:histogram:count 0
scalar v3_4_routers_2_areas.Router3.eth[0].queue flowQueueingTime:histogram:sumweights 0
scalar v3_4_routers_2_areas.Router3.eth[0].queue flowQueueingTime:histogram:mean nan
scalar v3_4_routers_2_areas.Router3.eth[0].queue flowQueueingTime:histogram:stddev nan
scalar v3_4_routers_2_areas.Router3.eth[0].queue flowQueueingTime:histogram:min nan
scalar v3_4_routers_2_areas.Router3.eth[0].queue flowQueueingTime:histogram:max nan
scalar v3_4_routers_2_areas.Router3.eth[0].queue flowQueueingTime:histogram:numbins 1
scalar v3_4_routers_2_areas.Router3.eth[0].queue flowQueueingTime:histogram:rangemin 0
scalar v3_4_routers_2_areas.Router3.eth[0].queue flowQueueingTime:histogram:rangemax 1
scalar v3_4_routers_2_areas.Router3.eth[0].queue flowQueueingTime:histogram:underflows 0
scalar v3_4_routers_2_areas.Router3.eth[0].queue flowQueueingTime:histogram:overflows 0
scalar v3_4_routers_2_areas.Router3.eth[0].queue incomingPacketLengths:histogram:count 53
scalar v3_4_routers_2_areas.Router3.eth[0].queue incomingPacketLengths:histogram:sumweights 53
scalar v3_4_routers_2_areas.Router3.eth[0].queue incomingPacketLengths:histogram:mean 858.8679245283018
scalar v3_4_routers_2_areas.Router3.eth[0].queue incomingPacketLengths:histogram:stddev 240.85536976303132
scalar v3_4_routers_2_areas.Router3.eth[0].queue incomingPacketLengths:histogram:min 688
scalar v3_4_routers_2_areas.Router3.eth[0].queue incomingPacketLengths:histogram:max 2192
scalar v3_4_routers_2_areas.Router3.eth[0].queue incomingPacketLengths:histogram:numbins 46
scalar v3_4_routers_2_areas.Router3.eth[0].queue incomingPacketLengths:histogram:rangemin 300
scalar v3_4_routers_2_areas.Router3.eth[0].queue incomingPacketLengths:histogram:rangemax 2600
scalar v3_4_routers_2_areas.Router3.eth[0].queue incomingPacketLengths:histogram:underflows 0
scalar v3_4_routers_2_areas.Router3.eth[0].queue incomingPacketLengths:histogram:overflows 0
scalar v3_4_routers_2_areas.Router3.eth[0].mac throughput:histogram:count 3000
scalar v3_4_routers_2_areas.Router3.eth[0].mac throughput:histogram:sumweights 3000
scalar v3_4_routers_2_areas.Router3.eth[0].mac throughput:histogram:mean 163.04
scalar v3_4_routers_2_areas.Router3.eth[0].mac throughput:histogram:stddev 2244.484468330354
scalar v3_4_routers_2_areas.Router3.eth[0].mac throughput:histogram:min 0
scalar v3_4_routers_2_areas.Router3.eth[0].mac throughput:histogram:max 79840
scalar v3_4_routers_2_areas.Router3.eth[0].mac throughput:histogram:numbins 58
scalar v3_4_routers_2_areas.Router3.eth[0].mac throughput:histogram:rangemin 0
scalar v3_4_routers_2_areas.Router3.eth[0].mac throughput:histogram:rangemax 81200
scalar v3_4_routers_2_areas.Router3.eth[0].mac throughput:histogram:underflows 0
scalar v3_4_routers_2_areas.Router3.eth[0].mac throughput:histogram:overflows 0
scalar v3_4_routers_2_areas.Router3.eth[0].mac utilization:histogram:count 3000
scalar v3_4_routers_2_areas.Router3.eth[0].mac utilization:histogram:sumweights 3000
scalar v3_4_routers_2_areas.Router3.eth[0].mac utilization:histogram:mean 0.00016304
scalar v3_4_routers_2_areas.Router3.eth[0].mac utilization:histogram:stddev 0.0022444844683303542
scalar v3_4_routers_2_areas.Router3.eth[0].mac utilization:histogram:min 0
scalar v3_4_routers_2_areas.Router3.eth[0].mac utilization:histogram:max 0.07984
scalar v3_4_routers_2_areas.Router3.eth[0].mac utilization:histogram:numbins 58
scalar v3_4_routers_2_areas.Router3.eth[0].mac utilization:histogram:rangemin 0
scalar v3_4_routers_2_areas.Router3.eth[0].mac utilization:histogram:rangemax 0.08120000000000001
scalar v3_4_routers_2_areas.Router3.eth[0].mac utilization:histogram:underflows 0
scalar v3_4_routers_2_areas.Router3.eth[0].mac utilization:histogram:overflows 0
scalar v3_4_routers_2_areas.Router3.eth[1].queue queueingTime:histogram:count 62
scalar v3_4_routers_2_areas.Router3.eth[1].queue queueingTime:histogram:sumweights 62
scalar v3_4_routers_2_areas.Router3.eth[1].queue queueingTime:histogram:mean 7.46258064516129e-06
scalar v3_4_routers_2_areas.Router3.eth[1].queue queueingTime:histogram:stddev 1.4301974864835042e-05
scalar v3_4_routers_2_areas.Router3.eth[1].queue queueingTime:histogram:min 0
scalar v3_4_routers_2_areas.Router3.eth[1].queue queueingTime:histogram:max 4.8e-05
scalar v3_4_routers_2_areas.Router3.eth[1].queue queueingTime:histogram:numbins 60
scalar v3_4_routers_2_areas.Router3.eth[1].queue queueingTime:histogram:rangemin 0
scalar v3_4_routers_2_areas.Router3.eth[1].queue queueingTime:histogram:rangemax 6.000000000000001e-05
scalar v3_4_routers_2_areas.Router3.eth[1].queue queueingTime:histogram:underflows 0
scalar v3_4_routers_2_areas.Router3.eth[1].queue queueingTime:histogram:overflows 0
scalar v3_4_routers_2_areas.Router3.eth[1].queue outgoingPacketLengths:histogram:count 62
scalar v3_4_routers_2_areas.Router3.eth[1].queue outgoingPacketLengths:histogram:sumweights 62
scalar v3_4_routers_2_areas.Router3.eth[1].queue outgoingPacketLengths:histogram:mean 878.9677419354839
scalar v3_4_routers_2_areas.Router3.eth[1].queue outgoingPacketLengths:histogram:stddev 219.5696959996413
scalar v3_4_routers_2_areas.Router3.eth[1].queue outgoingPacketLengths:histogram:min 688
scalar v3_4_routers_2_areas.Router3.eth[1].queue outgoingPacketLengths:histogram:max 2000
scalar v3_4_routers_2_areas.Router3.eth[1].queue outgoingPacketLengths:histogram:numbins 99
scalar v3_4_routers_2_areas.Router3.eth[1].queue outgoingPacketLengths:histogram:rangemin 360
scalar v3_4_routers_2_areas.Router3.eth[1].queue outgoingPacketLengths:histogram:rangemax 2340
scalar v3_4_routers_2_areas.Router3.eth[1].queue outgoingPacketLengths:histogram:underflows 0
scalar v3_4_routers_2_areas.Router3.eth[1].queue outgoingPacketLengths:histogram:overflows 0
scalar v3_4_routers_2_areas.Router3.eth[1].queue flowQueueingTime:histogram:count 0
scalar v3_4_routers_2_areas.Router3.eth[1].queue flowQueueingTime:histogram:sumweights 0
scalar v3_4_routers_2_areas.Router3.eth[1].queue flowQueueingTime:histogram:mean nan
scalar v3_4_routers_2_areas.Router3.eth[1].queue flowQueueingTime:histogram:stddev nan
scalar v3_4_routers_2_areas.Router3.eth[1].queue flowQueueingTime:histogram:min nan
scalar v3_4_routers_2_areas.Router3.eth[1].queue flowQueueingTime:histogram:max nan
scalar v3_4_routers_2_areas.Router3.eth[1].queue flowQueueingTime:histogram:numbins 1
scalar v3_4_routers_2_areas.Router3.eth[1].queue flowQueueingTime:histogram:rangemin 0
scalar v3_4_routers_2_areas.Router3.eth[1].queue flowQueueingTime:histogram:rangemax 1
scalar v3_4_routers_2_areas.Router3.eth[1].queue flowQueueingTime:histogram:underflows 0
scalar v3_4_routers_2_areas.Router3.eth[1].queue flowQueueingTime:histogram:overflows 0
scalar v3_4_routers_2_areas.Router3.eth[1].queue incomingPacketLengths:histogram:count 62
scalar v3_4_routers_2_areas.Router3.eth[1].queue incomingPacketLengths:histogram:sumweights 62
scalar v3_4_routers_2_areas.Router3.eth[1].queue incomingPacketLengths:histogram:mean 878.9677419354839
scalar v3_4_routers_2_areas.Router3.eth[1].queue incomingPacketLengths:histogram:stddev 219.5696959996413
scalar v3_4_routers_2_areas.Router3.eth[1].queue incomingPacketLengths:histogram:min 688
scalar v3_4_routers_2_areas.Router3.eth[1].queue incomingPacketLengths:histogram:max 2000
scalar v3_4_routers_2_areas.Router3.eth[1].queue incomingPacketLengths:histogram:numbins 99
scalar v3_4_routers_2_areas.Router3.eth[1].queue incomingPacketLengths:histogram:rangemin 360
scalar v3_4_routers_2_areas.Router3.eth[1].queue incomingPacketLengths:histogram:rangemax 2340
scalar v3_4_routers_2_areas.Router3.eth[1].queue incomingPacketLengths:histogram:underflows 0
scalar v3_4_routers_2_areas.Router3.eth[1].queue incomingPacketLengths:histogram:overflows 0
scalar v3_4_routers_2_areas.Router3.eth[1].mac throughput:histogram:count 3000
scalar v3_4_routers_2_areas.Router3.eth[1].mac throughput:histogram:sumweights 3000
scalar v3_4_routers_2_areas.Router3.eth[1].mac throughput:histogram:mean 194.88
scalar v3_4_routers_2_areas.Router3.eth[1].mac throughput:histogram:stddev 3001.3590651035456
scalar v3_4_routers_2_areas.Router3.eth[1].mac throughput:histogram:min 0
scalar v3_4_routers_2_areas.Router3.eth[1].mac throughput:histogram:max 114080.00000000001
scalar v3_4_routers_2_areas.Router3.eth[1].mac throughput:histogram:numbins 58
scalar v3_4_routers_2_areas.Router3.eth[1].mac throughput:histogram:rangemin 0
scalar v3_4_routers_2_areas.Router3.eth[1].mac throughput:histogram:rangemax 116000
scalar v3_4_routers_2_areas.Router3.eth[1].mac throughput:histogram:underflows 0
scalar v3_4_routers_2_areas.Router3.eth[1].mac throughput:histogram:overflows 0
scalar v3_4_routers_2_areas.Router3.eth[1].mac utilization:histogram:count 3000
scalar v3_4_routers_2_areas.Router3.eth[1].mac utilization:histogram:sumweights 3000
scalar v3_4_routers_2_areas.Router3.eth[1].mac utilization:histogram:mean 0.00019488
scalar v3_4_routers_2_areas.Router3.eth[1].mac utilization:histogram:stddev 0.0030013590651035453
scalar v3_4_routers_2_areas.Router3.eth[1].mac utilization:histogram:min 0
scalar v3_4_routers_2_areas.Router3.eth[1].mac utilization:histogram:max 0.11408
scalar v3_4_routers_2_areas.Router3.eth[1].mac utilization:histogram:numbins 58
scalar v3_4_routers_2_areas.Router3.eth[1].mac utilization:histogram:rangemin 0
scalar v3_4_routers_2_areas.Router3.eth[1].mac utilization:histogram:rangemax 0.116
scalar v3_4_routers_2_areas.Router3.eth[1].mac utilization:histogram:underflows 0
scalar v3_4_routers_2_areas.Router3.eth[1].mac utilization:histogram:overflows 0
scalar v3_4_routers_2_areas.Router3.eth[2].queue queueingTime:histogram:count 62
scalar v3_4_routers_2_areas.Router3.eth[2].queue queueingTime:histogram:sumweights 62
scalar v3_4_routers_2_areas.Router3.eth[2].queue queueingTime:histogram:mean 7.524516129032258e-06
scalar v3_4_routers_2_areas.Router3.eth[2].queue queueingTime:histogram:stddev 1.4342791378114967e-05
scalar v3_4_routers_2_areas.Router3.eth[2].queue queueingTime:histogram:min 0
scalar v3_4_routers_2_areas.Router3.eth[2].queue queueingTime:histogram:max 4.8e-05
scalar v3_4_routers_2_areas.Router3.eth[2].queue queueingTime:histogram:numbins 60
scalar v3_4_routers_2_areas.Router3.eth[2].queue queueingTime:histogram:rangemin 0
scalar v3_4_routers_2_areas.Router3.eth[2].queue queueingTime:histogram:rangemax 6.000000000000001e-05
scalar v3_4_routers_2_areas.Router3.eth[2].queue queueingTime:histogram:underflows 0
scalar v3_4_routers_2_areas.Router3.eth[2].queue queueingTime:histogram:overflows 0
scalar v3_4_routers_2_areas.Router3.eth[2].queue outgoingPacketLengths:histogram:count 62
scalar v3_4_routers_2_areas.Router3.eth[2].queue outgoingPacketLengths:histogram:sumweights 62
scalar v3_4_routers_2_areas.Router3.eth[2].queue outgoingPacketLengths:histogram:mean 878.9677419354839
scalar v3_4_routers_2_areas.Router3.eth[2].queue outgoingPacketLengths:histogram:stddev 219.5696959996413
scalar v3_4_routers_2_areas.Router3.eth[2].queue outgoingPacketLengths:histogram:min 688
scalar v3_4_routers_2_areas.Router3.eth[2].queue outgoingPacketLengths:histogram:max 2000
scalar v3_4_routers_2_areas.Router3.eth[2].queue outgoingPacketLengths:histogram:numbins 99
scalar v3_4_routers_2_areas.Router3.eth[2].queue outgoingPacketLengths:histogram:rangemin 360
scalar v3_4_routers_2_areas.Router3.eth[2].queue outgoingPacketLengths:histogram:rangemax 2340
scalar v3_4_routers_2_areas.Router3.eth[2].queue outgoingPacketLengths:histogram:underflows 0
scalar v3_4_routers_2_areas.Router3.eth[2].queue outgoingPacketLengths:histogram:overflows 0
scalar v3_4_routers_2_areas.Router3.eth[2].queue flowQueueingTime:histogram:count 0
scalar v3_4_routers_2_areas.Router3.eth[2].queue flowQueueingTime:histogram:sumweights 0
scalar v3_4_routers_2_areas.Router3.eth[2].queue flowQueueingTime:histogram:mean nan
scalar v3_4_routers_2_areas.Router3.eth[2].queue flowQueueingTime:histogram:stddev nan
scalar v3_4_routers_2_areas.Router3.eth[2].queue flowQueueingTime:histogram:min nan
scalar v3_4_routers_2_areas.Router3.eth[2].queue flowQueueingTime:histogram:max nan
scalar v3_4_routers_2_areas.Router3.eth[2].queue flowQueueingTime:histogram:numbins 1
scalar v3_4_routers_2_areas.Router3.eth[2].queue flowQueueingTime:histogram:rangemin 0
scalar v3_4_routers_2_areas.Router3.eth[2].queue flowQueueingTime:histogram:rangemax 1
scalar v3_4_routers_2_areas.Router3.eth[2].queue flowQueueingTime:histogram:underflows 0
scalar v3_4_routers_2_areas.Router3.eth[2].queue flowQueueingTime:histogram:overflows 0
scalar v3_4_routers_2_areas.Router3.eth[2].queue incomingPacketLengths:histogram:count 62
scalar v3_4_routers_2_areas.Router3.eth[2].queue incomingPacketLengths:histogram:sumweights 62
scalar v3_4_routers_2_areas.Router3.eth[2].queue incomingPacketLengths:histogram:mean 878.9677419354839
scalar v3_4_routers_2_areas.Router3.eth[2].queue incomingPacketLengths:histogram:stddev 219.5696959996413
scalar v3_4_routers_2_areas.Router3.eth[2].queue incomingPacketLengths:histogram:min 688
scalar v3_4_routers_2_areas.Router3.eth[2].queue incomingPacketLengths:histogram:max 2000
scalar v3_4_routers_2_areas.Router3.eth[2].queue incomingPacketLengths:histogram:numbins 99
scalar v3_4_routers_2_areas.Router3.eth[2].queue incomingPacketLengths:histogram:rangemin 360
scalar v3_4_routers_2_areas.Router3.eth[2].queue incomingPacketLengths:histogram:rangemax 2340
scalar v3_4_routers_2_areas.Router3.eth[2].queue incomingPacketLengths:histogram:underflows 0
scalar v3_4_routers_2_areas.Router3.eth[2].queue incomingPacketLengths:histogram:overflows 0
scalar v3_4_routers_2_areas.Router3.eth[2].mac throughput:histogram:count 3000
scalar v3_4_routers_2_areas.Router3.eth[2].mac throughput:histogram:sumweights 3000
scalar v3_4_routers_2_areas.Router3.eth[2].mac throughput:histogram:mean 194.88
scalar v3_4_routers_2_areas.Router3.eth[2].mac throughput:histogram:stddev 3001.3590651035456
scalar v3_4_routers_2_areas.Router3.eth[2].mac throughput:histogram:min 0
scalar v3_4_routers_2_areas.Router3.eth[2].mac throughput:histogram:max 114080.00000000001
scalar v3_4_routers_2_areas.Router3.eth[2].mac throughput:histogram:numbins 58
scalar v3_4_routers_2_areas.Router3.eth[2].mac throughput:histogram:rangemin 0
scalar v3_4_routers_2_areas.Router3.eth[2].mac throughput:histogram:rangemax 116000
scalar v3_4_routers_2_areas.Router3.eth[2].mac throughput:histogram:underflows 0
scalar v3_4_routers_2_areas.Router3.eth[2].mac throughput:histogram:overflows 0
scalar v3_4_routers_2_areas.Router3.eth[2].mac utilization:histogram:count 3000
scalar v3_4_routers_2_areas.Router3.eth[2].mac utilization:histogram:sumweights 3000
scalar v3_4_routers_2_areas.Router3.eth[2].mac utilization:histogram:mean 0.00019488
scalar v3_4_routers_2_areas.Router3.eth[2].mac utilization:histogram:stddev 0.0030013590651035453
scalar v3_4_routers_2_areas.Router3.eth[2].mac utilization:histogram:min 0
scalar v3_4_routers_2_areas.Router3.eth[2].mac utilization:histogram:max 0.11408
scalar v3_4_routers_2_areas.Router3.eth[2].mac utilization:histogram:numbins 58
scalar v3_4_routers_2_areas.Router3.eth[2].mac utilization:histogram:rangemin 0
scalar v3_4_routers_2_areas.Router3.eth[2].mac utilization:histogram:rangemax 0.116
scalar v3_4_routers_2_areas.Router3.eth[2].mac utilization:histogram:underflows 0
scalar v3_4_routers_2_areas.Router3.eth[2].mac utilization:histogram:overflows 0
scalar v3_4_routers_2_areas.Router4.eth[0].queue queueingTime:histogram:count 55
scalar v3_4_routers_2_areas.Router4.eth[0].queue queueingTime:histogram:sumweights 55
scalar v3_4_routers_2_areas.Router4.eth[0].queue queueingTime:histogram:mean 5.316e-06
scalar v3_4_routers_2_areas.Router4.eth[0].queue queueingTime:histogram:stddev 1.350455912042437e-05
scalar v3_4_routers_2_areas.Router4.eth[0].queue queueingTime:histogram:min 0
scalar v3_4_routers_2_areas.Router4.eth[0].queue queueingTime:histogram:max 5.52e-05
scalar v3_4_routers_2_areas.Router4.eth[0].queue queueingTime:histogram:numbins 69
scalar v3_4_routers_2_areas.Router4.eth[0].queue queueingTime:histogram:rangemin 0
scalar v3_4_routers_2_areas.Router4.eth[0].queue queueingTime:histogram:rangemax 6.900000000000001e-05
scalar v3_4_routers_2_areas.Router4.eth[0].queue queueingTime:histogram:underflows 0
scalar v3_4_routers_2_areas.Router4.eth[0].queue queueingTime:histogram:overflows 0
scalar v3_4_routers_2_areas.Router4.eth[0].queue outgoingPacketLengths:histogram:count 55
scalar v3_4_routers_2_areas.Router4.eth[0].queue outgoingPacketLengths:histogram:sumweights 55
scalar v3_4_routers_2_areas.Router4.eth[0].queue outgoingPacketLengths:histogram:mean 846.2545454545455
scalar v3_4_routers_2_areas.Router4.eth[0].queue outgoingPacketLengths:histogram:stddev 173.4679197774597
scalar v3_4_routers_2_areas.Router4.eth[0].queue outgoingPacketLengths:histogram:min 688
scalar v3_4_routers_2_areas.Router4.eth[0].queue outgoingPacketLengths:histogram:max 1616
scalar v3_4_routers_2_areas.Router4.eth[0].queue outgoingPacketLengths:histogram:numbins 71
scalar v3_4_routers_2_areas.Router4.eth[0].queue outgoingPacketLengths:histogram:rangemin 440
scalar v3_4_routers_2_areas.Router4.eth[0].queue outgoingPacketLengths:histogram:rangemax 1860
scalar v3_4_routers_2_areas.Router4.eth[0].queue outgoingPacketLengths:histogram:underflows 0
scalar v3_4_routers_2_areas.Router4.eth[0].queue outgoingPacketLengths:histogram:overflows 0
[...]
scalar v3_4_routers_2_areas.Router5.eth[0].mac utilization:vector:min 0
scalar v3_4_routers_2_areas.Router5.eth[0].mac utilization:vector:max 0.0752
scalar v3_4_routers_2_areas.Router5.eth[0].mac utilization:vector:starttime 0.1
scalar v3_4_routers_2_areas.Router5.eth[0].mac utilization:vector:endtime 300
scalar v3_4_routers_2_areas.Router5.eth[0].mac txPk:vector(packetBytes):count 55
scalar v3_4_routers_2_areas.Router5.eth[0].mac txPk:vector(packetBytes):sum 5818
scalar v3_4_routers_2_areas.Router5.eth[0].mac txPk:vector(packetBytes):sumweights 55
scalar v3_4_routers_2_areas.Router5.eth[0].mac txPk:vector(packetBytes):mean 105.78181818181818
scalar v3_4_routers_2_areas.Router5.eth[0].mac txPk:vector(packetBytes):stddev 21.683489972182464
scalar v3_4_routers_2_areas.Router5.eth[0].mac txPk:vector(packetBytes):min 86
scalar v3_4_routers_2_areas.Router5.eth[0].mac txPk:vector(packetBytes):max 202
scalar v3_4_routers_2_areas.Router5.eth[0].mac txPk:vector(packetBytes):starttime 5.000008160000001
scalar v3_4_routers_2_areas.Router5.eth[0].mac txPk:vector(packetBytes):endtime 295.0000084800001
scalar v3_4_routers_2_areas.Router5.eth[0].mac rxPkOk:vector(packetBytes):count 62
scalar v3_4_routers_2_areas.Router5.eth[0].mac rxPkOk:vector(packetBytes):sum 6812
scalar v3_4_routers_2_areas.Router5.eth[0].mac rxPkOk:vector(packetBytes):sumweights 62
scalar v3_4_routers_2_areas.Router5.eth[0].mac rxPkOk:vector(packetBytes):mean 109.87096774193549
scalar v3_4_routers_2_areas.Router5.eth[0].mac rxPkOk:vector(packetBytes):stddev 27.446211999955164
scalar v3_4_routers_2_areas.Router5.eth[0].mac rxPkOk:vector(packetBytes):min 86
scalar v3_4_routers_2_areas.Router5.eth[0].mac rxPkOk:vector(packetBytes):max 250
scalar v3_4_routers_2_areas.Router5.eth[0].mac rxPkOk:vector(packetBytes):starttime 5.000008260000001
scalar v3_4_routers_2_areas.Router5.eth[0].mac rxPkOk:vector(packetBytes):endtime 295.00000858000004
scalar v3_4_routers_2_areas.Router5.eth[0].mac passedUpPk:vector(packetBytes):count 62
scalar v3_4_routers_2_areas.Router5.eth[0].mac passedUpPk:vector(packetBytes):sum 6812
scalar v3_4_routers_2_areas.Router5.eth[0].mac passedUpPk:vector(packetBytes):sumweights 62
scalar v3_4_routers_2_areas.Router5.eth[0].mac passedUpPk:vector(packetBytes):mean 109.87096774193549
scalar v3_4_routers_2_areas.Router5.eth[0].mac passedUpPk:vector(packetBytes):stddev 27.446211999955164
scalar v3_4_routers_2_areas.Router5.eth[0].mac passedUpPk:vector(packetBytes):min 86
scalar v3_4_routers_2_areas.Router5.eth[0].mac passedUpPk:vector(packetBytes):max 250
scalar v3_4_routers_2_areas.Router5.eth[0].mac passedUpPk:vector(packetBytes):starttime 5.000008260000001
scalar v3_4_routers_2_areas.Router5.eth[0].mac passedUpPk:vector(packetBytes):endtime 295.00000858000004
scalar v3_4_routers_2_areas.Router5.eth[0].mac txPausePkUnits:vector:count 0
scalar v3_4_routers_2_areas.Router5.eth[0].mac txPausePkUnits:vector:sum 0
scalar v3_4_routers_2_areas.Router5.eth[0].mac txPausePkUnits:vector:sumweights 0
scalar v3_4_routers_2_areas.Router5.eth[0].mac txPausePkUnits:vector:mean nan
scalar v3_4_routers_2_areas.Router5.eth[0].mac txPausePkUnits:vector:stddev nan
scalar v3_4_routers_2_areas.Router5.eth[0].mac txPausePkUnits:vector:min inf
scalar v3_4_routers_2_areas.Router5.eth[0].mac txPausePkUnits:vector:max -inf
scalar v3_4_routers_2_areas.Router5.eth[0].mac txPausePkUnits:vector:starttime nan
scalar v3_4_routers_2_areas.Router5.eth[0].mac txPausePkUnits:vector:endtime nan
scalar v3_4_routers_2_areas.Router5.eth[0].mac rxPausePkUnits:vector:count 0
scalar v3_4_routers_2_areas.Router5.eth[0].mac rxPausePkUnits:vector:sum 0
scalar v3_4_routers_2_areas.Router5.eth[0].mac rxPausePkUnits:vector:sumweights 0
scalar v3_4_routers_2_areas.Router5.eth[0].mac rxPausePkUnits:vector:mean nan
scalar v3_4_routers_2_areas.Router5.eth[0].mac rxPausePkUnits:vector:stddev nan
scalar v3_4_routers_2_areas.Router5.eth[0].mac rxPausePkUnits:vector:min inf
scalar v3_4_routers_2_areas.Router5.eth[0].mac rxPausePkUnits:vector:max -inf
scalar v3_4_routers_2_areas.Router5.eth[0].mac rxPausePkUnits:vector:starttime nan
scalar v3_4_routers_2_areas.Router5.eth[0].mac rxPausePkUnits:vector:endtime nan
scalar v3_4_routers_2_areas.Router5.eth[0].mac packetReceivedFromUpper:vector(packetBytes):count 55
scalar v3_4_routers_2_areas.Router5.eth[0].mac packetReceivedFromUpper:vector(packetBytes):sum 5818
scalar v3_4_routers_2_areas.Router5.eth[0].mac packetReceivedFromUpper:vector(packetBytes):sumweights 55
scalar v3_4_routers_2_areas.Router5.eth[0].mac packetReceivedFromUpper:vector(packetBytes):mean 105.78181818181818
scalar v3_4_routers_2_areas.Router5.eth[0].mac packetReceivedFromUpper:vector(packetBytes):stddev 21.683489972182464
scalar v3_4_routers_2_areas.Router5.eth[0].mac packetReceivedFromUpper:vector(packetBytes):min 86
scalar v3_4_routers_2_areas.Router5.eth[0].mac packetReceivedFromUpper:vector(packetBytes):max 202
scalar v3_4_routers_2_areas.Router5.eth[0].mac packetReceivedFromUpper:vector(packetBytes):starttime 5
scalar v3_4_routers_2_areas.Router5.eth[0].mac packetReceivedFromUpper:vector(packetBytes):endtime 295
scalar v3_4_routers_2_areas.Router5.eth[0].mac packetDropIncorrectlyReceived:vector(packetBytes):count 0
scalar v3_4_routers_2_areas.Router5.eth[0].mac packetDropIncorrectlyReceived:vector(packetBytes):sum 0
scalar v3_4_routers_2_areas.Router5.eth[0].mac packetDropIncorrectlyReceived:vector(packetBytes):sumweights 0
scalar v3_4_routers_2_areas.Router5.eth[0].mac packetDropIncorrectlyReceived:vector(packetBytes):mean nan
scalar v3_4_routers_2_areas.Router5.eth[0].mac packetDropIncorrectlyReceived:vector(packetBytes):stddev nan
scalar v3_4_routers_2_areas.Router5.eth[0].mac packetDropIncorrectlyReceived:vector(packetBytes):min inf
scalar v3_4_routers_2_areas.Router5.eth[0].mac packetDropIncorrectlyReceived:vector(packetBytes):max -inf
scalar v3_4_routers_2_areas.Router5.eth[0].mac packetDropIncorrectlyReceived:vector(packetBytes):starttime nan
scalar v3_4_routers_2_areas.Router5.eth[0].mac packetDropIncorrectlyReceived:vector(packetBytes):endtime nan
scalar v3_4_routers_2_areas.Router5.eth[0].mac packetDropInterfaceDown:vector(packetBytes):count 0
scalar v3_4_routers_2_areas.Router5.eth[0].mac packetDropInterfaceDown:vector(packetBytes):sum 0
scalar v3_4_routers_2_areas.Router5.eth[0].mac packetDropInterfaceDown:vector(packetBytes):sumweights 0
scalar v3_4_routers_2_areas.Router5.eth[0].mac packetDropInterfaceDown:vector(packetBytes):mean nan
scalar v3_4_routers_2_areas.Router5.eth[0].mac packetDropInterfaceDown:vector(packetBytes):stddev nan
scalar v3_4_routers_2_areas.Router5.eth[0].mac packetDropInterfaceDown:vector(packetBytes):min inf
scalar v3_4_routers_2_areas.Router5.eth[0].mac packetDropInterfaceDown:vector(packetBytes):max -inf
scalar v3_4_routers_2_areas.Router5.eth[0].mac packetDropInterfaceDown:vector(packetBytes):starttime nan
scalar v3_4_routers_2_areas.Router5.eth[0].mac packetDropInterfaceDown:vector(packetBytes):endtime nan
scalar v3_4_routers_2_areas.Router5.eth[0].mac packetDropNotAddressedToUs:vector(packetBytes):count 0
scalar v3_4_routers_2_areas.Router5.eth[0].mac packetDropNotAddressedToUs:vector(packetBytes):sum 0
scalar v3_4_routers_2_areas.Router5.eth[0].mac packetDropNotAddressedToUs:vector(packetBytes):sumweights 0
scalar v3_4_routers_2_areas.Router5.eth[0].mac packetDropNotAddressedToUs:vector(packetBytes):mean nan
scalar v3_4_routers_2_areas.Router5.eth[0].mac packetDropNotAddressedToUs:vector(packetBytes):stddev nan
scalar v3_4_routers_2_areas.Router5.eth[0].mac packetDropNotAddressedToUs:vector(packetBytes):min inf
scalar v3_4_routers_2_areas.Router5.eth[0].mac packetDropNotAddressedToUs:vector(packetBytes):max -inf
scalar v3_4_routers_2_areas.Router5.eth[0].mac packetDropNotAddressedToUs:vector(packetBytes):starttime nan
scalar v3_4_routers_2_areas.Router5.eth[0].mac packetDropNotAddressedToUs:vector(packetBytes):endtime nan
scalar v3_4_routers_2_areas.Router5.eth[0] packetDropInterfaceDown:vector(packetBytes):count 0
scalar v3_4_routers_2_areas.Router5.eth[0] packetDropInterfaceDown:vector(packetBytes):sum 0
scalar v3_4_routers_2_areas.Router5.eth[0] packetDropInterfaceDown:vector(packetBytes):sumweights 0
scalar v3_4_routers_2_areas.Router5.eth[0] packetDropInterfaceDown:vector(packetBytes):mean nan
scalar v3_4_routers_2_areas.Router5.eth[0] packetDropInterfaceDown:vector(packetBytes):stddev nan
scalar v3_4_routers_2_areas.Router5.eth[0] packetDropInterfaceDown:vector(packetBytes):min inf
scalar v3_4_routers_2_areas.Router5.eth[0] packetDropInterfaceDown:vector(packetBytes):max -inf
scalar v3_4_routers_2_areas.Router5.eth[0] packetDropInterfaceDown:vector(packetBytes):starttime nan
scalar v3_4_routers_2_areas.Router5.eth[0] packetDropInterfaceDown:vector(packetBytes):endtime nan
scalar v3_4_routers_2_areas.Router5.eth[0] packetDropNoCarrier:vector(packetBytes):count 0
scalar v3_4_routers_2_areas.Router5.eth[0] packetDropNoCarrier:vector(packetBytes):sum 0
scalar v3_4_routers_2_areas.Router5.eth[0] packetDropNoCarrier:vector(packetBytes):sumweights 0
scalar v3_4_routers_2_areas.Router5.eth[0] packetDropNoCarrier:vector(packetBytes):mean nan
scalar v3_4_routers_2_areas.Router5.eth[0] packetDropNoCarrier:vector(packetBytes):stddev nan
scalar v3_4_routers_2_areas.Router5.eth[0] packetDropNoCarrier:vector(packetBytes):min inf
scalar v3_4_routers_2_areas.Router5.eth[0] packetDropNoCarrier:vector(packetBytes):max -inf
scalar v3_4_routers_2_areas.Router5.eth[0] packetDropNoCarrier:vector(packetBytes):starttime nan
scalar v3_4_routers_2_areas.Router5.eth[0] packetDropNoCarrier:vector(packetBytes):endtime nan
scalar v3_4_routers_2_areas.Router5.ipv4.ip packetDropAddressResolutionFailed:vector(packetBytes):count 0
scalar v3_4_routers_2_areas.Router5.ipv4.ip packetDropAddressResolutionFailed:vector(packetBytes):sum 0
scalar v3_4_routers_2_areas.Router5.ipv4.ip packetDropAddressResolutionFailed:vector(packetBytes):sumweights 0
scalar v3_4_routers_2_areas.Router5.ipv4.ip packetDropAddressResolutionFailed:vector(packetBytes):mean nan
scalar v3_4_routers_2_areas.Router5.ipv4.ip packetDropAddressResolutionFailed:vector(packetBytes):stddev nan
scalar v3_4_routers_2_areas.Router5.ipv4.ip packetDropAddressResolutionFailed:vector(packetBytes):min inf
scalar v3_4_routers_2_areas.Router5.ipv4.ip packetDropAddressResolutionFailed:vector(packetBytes):max -inf
scalar v3_4_routers_2_areas.Router5.ipv4.ip packetDropAddressResolutionFailed:vector(packetBytes):starttime nan
scalar v3_4_routers_2_areas.Router5.ipv4.ip packetDropAddressResolutionFailed:vector(packetBytes):endtime nan
scalar v3_4_routers_2_areas.Router5.ipv4.ip packetDropHopLimitReached:vector(packetBytes):count 0
scalar v3_4_routers_2_areas.Router5.ipv4.ip packetDropHopLimitReached:vector(packetBytes):sum 0
scalar v3_4_routers_2_areas.Router5.ipv4.ip packetDropHopLimitReached:vector(packetBytes):sumweights 0
scalar v3_4_routers_2_areas.Router5.ipv4.ip packetDropHopLimitReached:vector(packetBytes):mean nan
scalar v3_4_routers_2_areas.Router5.ipv4.ip packetDropHopLimitReached:vector(packetBytes):stddev nan
scalar v3_4_routers_2_areas.Router5.ipv4.ip packetDropHopLimitReached:vector(packetBytes):min inf
scalar v3_4_routers_2_areas.Router5.ipv4.ip packetDropHopLimitReached:vector(packetBytes):max -inf
scalar v3_4_routers_2_areas.Router5.ipv4.ip packetDropHopLimitReached:vector(packetBytes):starttime nan
scalar v3_4_routers_2_areas.Router5.ipv4.ip packetDropHopLimitReached:vector(packetBytes):endtime nan
scalar v3_4_routers_2_areas.Router5.ipv4.ip packetDropForwardingDisabled:vector(packetBytes):count 0
scalar v3_4_routers_2_areas.Router5.ipv4.ip packetDropForwardingDisabled:vector(packetBytes):sum 0
scalar v3_4_routers_2_areas.Router5.ipv4.ip packetDropForwardingDisabled:vector(packetBytes):sumweights 0
scalar v3_4_routers_2_areas.Router5.ipv4.ip packetDropForwardingDisabled:vector(packetBytes):mean nan
scalar v3_4_routers_2_areas.Router5.ipv4.ip packetDropForwardingDisabled:vector(packetBytes):stddev nan
scalar v3_4_routers_2_areas.Router5.ipv4.ip packetDropForwardingDisabled:vector(packetBytes):min inf
scalar v3_4_routers_2_areas.Router5.ipv4.ip packetDropForwardingDisabled:vector(packetBytes):max -inf
scalar v3_4_routers_2_areas.Router5.ipv4.ip packetDropForwardingDisabled:vector(packetBytes):starttime nan
scalar v3_4_routers_2_areas.Router5.ipv4.ip packetDropForwardingDisabled:vector(packetBytes):endtime nan
scalar v3_4_routers_2_areas.Router5.ipv4.ip packetDropLifetimeExpired:vector(packetBytes):count 0
scalar v3_4_routers_2_areas.Router5.ipv4.ip packetDropLifetimeExpired:vector(packetBytes):sum 0
scalar v3_4_routers_2_areas.Router5.ipv4.ip packetDropLifetimeExpired:vector(packetBytes):sumweights 0
scalar v3_4_routers_2_areas.Router5.ipv4.ip packetDropLifetimeExpired:vector(packetBytes):mean nan
scalar v3_4_routers_2_areas.Router5.ipv4.ip packetDropLifetimeExpired:vector(packetBytes):stddev nan
scalar v3_4_routers_2_areas.Router5.ipv4.ip packetDropLifetimeExpired:vector(packetBytes):min inf
scalar v3_4_routers_2_areas.Router5.ipv4.ip packetDropLifetimeExpired:vector(packetBytes):max -inf
scalar v3_4_routers_2_areas.Router5.ipv4.ip packetDropLifetimeExpired:vector(packetBytes):starttime nan
scalar v3_4_routers_2_areas.Router5.ipv4.ip packetDropLifetimeExpired:vector(packetBytes):endtime nan
scalar v3_4_routers_2_areas.Router5.ipv4.ip packetDropNoInterfaceFound:vector(packetBytes):count 0
scalar v3_4_routers_2_areas.Router5.ipv4.ip packetDropNoInterfaceFound:vector(packetBytes):sum 0
scalar v3_4_routers_2_areas.Router5.ipv4.ip packetDropNoInterfaceFound:vector(packetBytes):sumweights 0
scalar v3_4_routers_2_areas.Router5.ipv4.ip packetDropNoInterfaceFound:vector(packetBytes):mean nan
scalar v3_4_routers_2_areas.Router5.ipv4.ip packetDropNoInterfaceFound:vector(packetBytes):stddev nan
scalar v3_4_routers_2_areas.Router5.ipv4.ip packetDropNoInterfaceFound:vector(packetBytes):min inf
scalar v3_4_routers_2_areas.Router5.ipv4.ip packetDropNoInterfaceFound:vector(packetBytes):max -inf
scalar v3_4_routers_2_areas.Router5.ipv4.ip packetDropNoInterfaceFound:vector(packetBytes):starttime nan
scalar v3_4_routers_2_areas.Router5.ipv4.ip packetDropNoInterfaceFound:vector(packetBytes):endtime nan
scalar v3_4_routers_2_areas.Router5.ipv4.ip packetDropNoRouteFound:vector(packetBytes):count 0
scalar v3_4_routers_2_areas.Router5.ipv4.ip packetDropNoRouteFound:vector(packetBytes):sum 0
scalar v3_4_routers_2_areas.Router5.ipv4.ip packetDropNoRouteFound:vector(packetBytes):sumweights 0
scalar v3_4_routers_2_areas.Router5.ipv4.ip packetDropNoRouteFound:vector(packetBytes):mean nan
scalar v3_4_routers_2_areas.Router5.ipv4.ip packetDropNoRouteFound:vector(packetBytes):stddev nan
scalar v3_4_routers_2_areas.Router5.ipv4.ip packetDropNoRouteFound:vector(packetBytes):min inf
scalar v3_4_routers_2_areas.Router5.ipv4.ip packetDropNoRouteFound:vector(packetBytes):max -inf
scalar v3_4_routers_2_areas.Router5.ipv4.ip packetDropNoRouteFound:vector(packetBytes):starttime nan
scalar v3_4_routers_2_areas.Router5.ipv4.ip packetDropNoRouteFound:vector(packetBytes):endtime nan
scalar v3_4_routers_2_areas.Router5.ipv4.ip packetDropUndefined:vector(packetBytes):count 0
scalar v3_4_routers_2_areas.Router5.ipv4.ip packetDropUndefined:vector(packetBytes):sum 0
scalar v3_4_routers_2_areas.Router5.ipv4.ip packetDropUndefined:vector(packetBytes):sumweights 0
scalar v3_4_routers_2_areas.Router5.ipv4.ip packetDropUndefined:vector(packetBytes):mean nan
scalar v3_4_routers_2_areas.Router5.ipv4.ip packetDropUndefined:vector(packetBytes):stddev nan
scalar v3_4_routers_2_areas.Router5.ipv4.ip packetDropUndefined:vector(packetBytes):min inf
scalar v3_4_routers_2_areas.Router5.ipv4.ip packetDropUndefined:vector(packetBytes):max -inf
scalar v3_4_routers_2_areas.Router5.ipv4.ip packetDropUndefined:vector(packetBytes):starttime nan
scalar v3_4_routers_2_areas.Router5.ipv4.ip packetDropUndefined:vector(packetBytes):endtime nan
scalar v3_4_routers_2_areas.Router5.ipv4.arp arpRequestSent:vector(packetBytes):count 0
scalar v3_4_routers_2_areas.Router5.ipv4.arp arpRequestSent:vector(packetBytes):sum 0
scalar v3_4_routers_2_areas.Router5.ipv4.arp arpRequestSent:vector(packetBytes):sumweights 0
scalar v3_4_routers_2_areas.Router5.ipv4.arp arpRequestSent:vector(packetBytes):mean nan
scalar v3_4_routers_2_areas.Router5.ipv4.arp arpRequestSent:vector(packetBytes):stddev nan
scalar v3_4_routers_2_areas.Router5.ipv4.arp arpRequestSent:vector(packetBytes):min inf
scalar v3_4_routers_2_areas.Router5.ipv4.arp arpRequestSent:vector(packetBytes):max -inf
scalar v3_4_routers_2_areas.Router5.ipv4.arp arpRequestSent:vector(packetBytes):starttime nan
scalar v3_4_routers_2_areas.Router5.ipv4.arp arpRequestSent:vector(packetBytes):endtime nan
scalar v3_4_routers_2_areas.Router5.ipv4.arp arpReplySent:vector(packetBytes):count 0
scalar v3_4_routers_2_areas.Router5.ipv4.arp arpReplySent:vector(packetBytes):sum 0
scalar v3_4_routers_2_areas.Router5.ipv4.arp arpReplySent:vector(packetBytes):sumweights 0
scalar v3_4_routers_2_areas.Router5.ipv4.arp arpReplySent:vector(packetBytes):mean nan
scalar v3_4_routers_2_areas.Router5.ipv4.arp arpReplySent:vector(packetBytes):stddev nan
scalar v3_4_routers_2_areas.Router5.ipv4.arp arpReplySent:vector(packetBytes):min inf
scalar v3_4_routers_2_areas.Router5.ipv4.arp arpReplySent:vector(packetBytes):max -inf
scalar v3_4_routers_2_areas.Router5.ipv4.arp arpReplySent:vector(packetBytes):starttime nan
scalar v3_4_routers_2_areas.Router5.ipv4.arp arpReplySent:vector(packetBytes):endtime nan
scalar v3_4_routers_2_areas.Router5.ipv6.neighbourDiscovery startDad:vector:count 0
scalar v3_4_routers_2_areas.Router5.ipv6.neighbourDiscovery startDad:vector:sum 0
scalar v3_4_routers_2_areas.Router5.ipv6.neighbourDiscovery startDad:vector:sumweights 0
scalar v3_4_routers_2_areas.Router5.ipv6.neighbourDiscovery startDad:vector:mean nan
scalar v3_4_routers_2_areas.Router5.ipv6.neighbourDiscovery startDad:vector:stddev nan
scalar v3_4_routers_2_areas.Router5.ipv6.neighbourDiscovery startDad:vector:min inf
scalar v3_4_routers_2_areas.Router5.ipv6.neighbourDiscovery startDad:vector:max -inf
scalar v3_4_routers_2_areas.Router5.ipv6.neighbourDiscovery startDad:vector:starttime nan
scalar v3_4_routers_2_areas.Router5.ipv6.neighbourDiscovery startDad:vector:endtime nan
scalar v3_4_routers_2_areas.Router5.ipv6.neighbourDiscovery dadCompleted:vector:count 0
scalar v3_4_routers_2_areas.Router5.ipv6.neighbourDiscovery dadCompleted:vector:sum 0
scalar v3_4_routers_2_areas.Router5.ipv6.neighbourDiscovery dadCompleted:vector:sumweights 0
scalar v3_4_routers_2_areas.Router5.ipv6.neighbourDiscovery dadCompleted:vector:mean nan
scalar v3_4_routers_2_areas.Router5.ipv6.neighbourDiscovery dadCompleted:vector:stddev nan
scalar v3_4_routers_2_areas.Router5.ipv6.neighbourDiscovery dadCompleted:vector:min inf
scalar v3_4_routers_2_areas.Router5.ipv6.neighbourDiscovery dadCompleted:vector:max -inf
scalar v3_4_routers_2_areas.Router5.ipv6.neighbourDiscovery dadCompleted:vector:starttime nan
scalar v3_4_routers_2_areas.Router5.ipv6.neighbourDiscovery dadCompleted:vector:endtime nan
scalar v3_4_routers_2_areas.Router5.ipv6.neighbourDiscovery dadFailed:vector:count 0
scalar v3_4_routers_2_areas.Router5.ipv6.neighbourDiscovery dadFailed:vector:sum 0
scalar v3_4_routers_2_areas.Router5.ipv6.neighbourDiscovery dadFailed:vector:sumweights 0
scalar v3_4_routers_2_areas.Router5.ipv6.neighbourDiscovery dadFailed:vector:mean nan
scalar v3_4_routers_2_areas.Router5.ipv6.neighbourDiscovery dadFailed:vector:stddev nan
scalar v3_4_routers_2_areas.Router5.ipv6.neighbourDiscovery dadFailed:vector:min inf
scalar v3_4_routers_2_areas.Router5.ipv6.neighbourDiscovery dadFailed:vector:max -inf
scalar v3_4_routers_2_areas.Router5.ipv6.neighbourDiscovery dadFailed:vector:starttime nan
scalar v3_4_routers_2_areas.Router5.ipv6.neighbourDiscovery dadFailed:vector:endtime nan

