version 3
run General-0-20260206-21:58:14-3561152
attr configname General
attr datetime 20260206-21:58:14
attr datetimef 20260206-215814
attr experiment General
attr inifile omnetpp.ini
attr iterationvars ""
attr iterationvarsd ""
attr iterationvarsf ""
attr measurement ""
attr network RSVPTE4
attr processid 3561152
attr repetition 0
attr replication #0
attr resultdir results
attr runnumber 0
attr seedset 0
config **.param-recording false
config image-path /home/attila/projects/inet/images
config output-scalar-file results/omnetpp.ini-General-#0.sca
config output-scalar-precision 17
config output-vector-file results/omnetpp.ini-General-#0.vec
config output-vector-precision 17
config record-eventlog false
config sim-time-limit 6s
config network RSVPTE4
config sim-time-limit 6s
config total-stack 64MiB
config **.host1.numApps 1
config **.host1.app[0].typename UdpBasicApp
config **.host1.app[0].localPort 100
config **.host1.app[0].destPort 100
config **.host1.app[0].messageLength "128 bytes"
config **.host1.app[0].sendInterval 0.01s
config **.host1.app[0].destAddresses "\"host3\""
config **.host3.numApps 1
config **.host3.app[0].typename UdpSink
config **.host3.app[0].localPort 100
config **.host1.ipv4.routingTable.routingFile "\"host1.rt\""
config **.host2.ipv4.routingTable.routingFile "\"host2.rt\""
config **.host3.ipv4.routingTable.routingFile "\"host3.rt\""
config **.host4.ipv4.routingTable.routingFile "\"host4.rt\""
config **.host5.ipv4.routingTable.routingFile "\"host5.rt\""
config **.LSR1.classifier.config "xmldoc(\"LSR1_fec.xml\")"
config **.LSR1.rsvp.traffic "xmldoc(\"LSR1_rsvp.xml\")"
config **.LSR*.rsvp.helloInterval 0.2s
config **.LSR*.rsvp.helloTimeout 0.5s
config **.LSR1.ipv4.routingTable.routingFile "\"LSR1.rt\""
config **.LSR2.ipv4.routingTable.routingFile "\"LSR2.rt\""
config **.LSR3.ipv4.routingTable.routingFile "\"LSR3.rt\""
config **.LSR4.ipv4.routingTable.routingFile "\"LSR4.rt\""
config **.LSR5.ipv4.routingTable.routingFile "\"LSR5.rt\""
config **.LSR6.ipv4.routingTable.routingFile "\"LSR6.rt\""
config **.LSR7.ipv4.routingTable.routingFile "\"LSR7.rt\""
config **.ppp[*].queue.typename DropTailQueue
config **.ppp[*].queue.packetCapacity 10
config *.*.hasStatus true
config **.scenarioManager.script "xmldoc(\"scenario.xml\")"

scalar RSVPTE4.LSR1.ipv4.ip packetDropAddressResolutionFailed:count 0
scalar RSVPTE4.LSR1.ipv4.ip packetDropAddressResolutionFailed:sum(packetBytes) 0
scalar RSVPTE4.LSR1.ipv4.ip packetDropHopLimitReached:count 0
scalar RSVPTE4.LSR1.ipv4.ip packetDropHopLimitReached:sum(packetBytes) 0
scalar RSVPTE4.LSR1.ipv4.ip packetDropForwardingDisabled:count 0
scalar RSVPTE4.LSR1.ipv4.ip packetDropForwardingDisabled:sum(packetBytes) 0
scalar RSVPTE4.LSR1.ipv4.ip packetDropLifetimeExpired:count 0
scalar RSVPTE4.LSR1.ipv4.ip packetDropLifetimeExpired:sum(packetBytes) 0
scalar RSVPTE4.LSR1.ipv4.ip packetDropNoInterfaceFound:count 0
scalar RSVPTE4.LSR1.ipv4.ip packetDropNoInterfaceFound:sum(packetBytes) 0
scalar RSVPTE4.LSR1.ipv4.ip packetDropNoRouteFound:count 3
scalar RSVPTE4.LSR1.ipv4.ip packetDropNoRouteFound:sum(packetBytes) 468
scalar RSVPTE4.LSR1.ipv4.ip packetDropUndefined:count 0
scalar RSVPTE4.LSR1.ipv4.ip packetDropUndefined:sum(packetBytes) 0
scalar RSVPTE4.LSR1.ipv4.arp arpResolutionFailed:count 0
scalar RSVPTE4.LSR1.ipv4.arp arpResolutionCompleted:count 0
scalar RSVPTE4.LSR1.ipv4.arp arpResolutionInitiated:count 0
scalar RSVPTE4.LSR1.ipv4.arp arpReplySent:count 0
scalar RSVPTE4.LSR1.ipv4.arp arpReplySent:sum(packetBytes) 0
scalar RSVPTE4.LSR1.ipv4.arp arpRequestSent:count 0
scalar RSVPTE4.LSR1.ipv4.arp arpRequestSent:sum(packetBytes) 0
scalar RSVPTE4.LSR1.lo[0].lo rcvdPkFromHl:count 0
scalar RSVPTE4.LSR1.lo[0].lo rcvdPkFromHl:sum(packetBytes) 0
scalar RSVPTE4.LSR1.lo[0].lo passedUpPk:count 0
scalar RSVPTE4.LSR1.lo[0].lo passedUpPk:sum(packetBytes) 0
scalar RSVPTE4.LSR1.lo[0] packetDropInterfaceDown:count 0
scalar RSVPTE4.LSR1.lo[0] packetDropInterfaceDown:sum(packetBytes) 0
scalar RSVPTE4.LSR1.lo[0] packetDropNoCarrier:count 0
scalar RSVPTE4.LSR1.lo[0] packetDropNoCarrier:sum(packetBytes) 0
scalar RSVPTE4.LSR1.ppp[0].queue queueLength:last 0
scalar RSVPTE4.LSR1.ppp[0].queue queueLength:max 2
scalar RSVPTE4.LSR1.ppp[0].queue queueLength:timeavg 0.0035850129390000009
scalar RSVPTE4.LSR1.ppp[0].queue queueBitLength:last 0
scalar RSVPTE4.LSR1.ppp[0].queue queueBitLength:max 2560
scalar RSVPTE4.LSR1.ppp[0].queue queueBitLength:timeavg 3.3714772946053326
scalar RSVPTE4.LSR1.ppp[0].queue outgoingPackets:count 660
scalar RSVPTE4.LSR1.ppp[0].queue outgoingPacketLengths:sum 795376
scalar RSVPTE4.LSR1.ppp[0].queue incomingPackets:count 660
scalar RSVPTE4.LSR1.ppp[0].queue incomingPacketLengths:sum 795376
scalar RSVPTE4.LSR1.ppp[0].queue droppedPacketsQueueOverflow:count 0
scalar RSVPTE4.LSR1.ppp[0].queue droppedPacketLengthsQueueOverflow:sum 0
scalar RSVPTE4.LSR1.ppp[0].ppp transmissionState:timeavg 0.23120444444133512
scalar RSVPTE4.LSR1.ppp[0].ppp rxPkOk:count 70
scalar RSVPTE4.LSR1.ppp[0].ppp rxPkOk:sum(packetBytes) 6840
scalar RSVPTE4.LSR1.ppp[0].ppp txPk:count 660
scalar RSVPTE4.LSR1.ppp[0].ppp txPk:sum(packetBytes) 104042
scalar RSVPTE4.LSR1.ppp[0].ppp rcvdPkFromHl:count 660
scalar RSVPTE4.LSR1.ppp[0].ppp rcvdPkFromHl:sum(packetBytes) 99422
scalar RSVPTE4.LSR1.ppp[0].ppp passedUpPk:count 70
scalar RSVPTE4.LSR1.ppp[0].ppp passedUpPk:sum(packetBytes) 6350
scalar RSVPTE4.LSR1.ppp[0].ppp packetDropIncorrectlyReceived:count 0
scalar RSVPTE4.LSR1.ppp[0].ppp packetDropIncorrectlyReceived:sum(packetBytes) 0
scalar RSVPTE4.LSR1.ppp[0].ppp packetDropInterfaceDown:count 0
scalar RSVPTE4.LSR1.ppp[0].ppp packetDropInterfaceDown:sum(packetBytes) 0
scalar RSVPTE4.LSR1.ppp[0] packetDropInterfaceDown:count 0
scalar RSVPTE4.LSR1.ppp[0] packetDropInterfaceDown:sum(packetBytes) 0
scalar RSVPTE4.LSR1.ppp[0] packetDropNoCarrier:count 0
scalar RSVPTE4.LSR1.ppp[0] packetDropNoCarrier:sum(packetBytes) 0
scalar RSVPTE4.LSR1.ppp[1].queue queueLength:last 0
scalar RSVPTE4.LSR1.ppp[1].queue queueLength:max 1
scalar RSVPTE4.LSR1.ppp[1].queue queueLength:timeavg 0.0031639939569999991
scalar RSVPTE4.LSR1.ppp[1].queue queueBitLength:last 0
scalar RSVPTE4.LSR1.ppp[1].queue queueBitLength:max 9376
scalar RSVPTE4.LSR1.ppp[1].queue queueBitLength:timeavg 7.9944073403519988
scalar RSVPTE4.LSR1.ppp[1].queue outgoingPackets:count 50
scalar RSVPTE4.LSR1.ppp[1].queue outgoingPacketLengths:sum 34736
scalar RSVPTE4.LSR1.ppp[1].queue incomingPackets:count 50
scalar RSVPTE4.LSR1.ppp[1].queue incomingPacketLengths:sum 34736
scalar RSVPTE4.LSR1.ppp[1].queue droppedPacketsQueueOverflow:count 0
scalar RSVPTE4.LSR1.ppp[1].queue droppedPacketLengthsQueueOverflow:sum 0
scalar RSVPTE4.LSR1.ppp[1].ppp transmissionState:timeavg 0.010426666665000001
scalar RSVPTE4.LSR1.ppp[1].ppp rxPkOk:count 65
scalar RSVPTE4.LSR1.ppp[1].ppp rxPkOk:sum(packetBytes) 6465
scalar RSVPTE4.LSR1.ppp[1].ppp txPk:count 50
scalar RSVPTE4.LSR1.ppp[1].ppp txPk:sum(packetBytes) 4692
scalar RSVPTE4.LSR1.ppp[1].ppp rcvdPkFromHl:count 50
scalar RSVPTE4.LSR1.ppp[1].ppp rcvdPkFromHl:sum(packetBytes) 4342
scalar RSVPTE4.LSR1.ppp[1].ppp passedUpPk:count 65
scalar RSVPTE4.LSR1.ppp[1].ppp passedUpPk:sum(packetBytes) 6010
scalar RSVPTE4.LSR1.ppp[1].ppp packetDropIncorrectlyReceived:count 0
scalar RSVPTE4.LSR1.ppp[1].ppp packetDropIncorrectlyReceived:sum(packetBytes) 0
scalar RSVPTE4.LSR1.ppp[1].ppp packetDropInterfaceDown:count 0
scalar RSVPTE4.LSR1.ppp[1].ppp packetDropInterfaceDown:sum(packetBytes) 0
scalar RSVPTE4.LSR1.ppp[1] packetDropInterfaceDown:count 0
scalar RSVPTE4.LSR1.ppp[1] packetDropInterfaceDown:sum(packetBytes) 0
scalar RSVPTE4.LSR1.ppp[1] packetDropNoCarrier:count 0
scalar RSVPTE4.LSR1.ppp[1] packetDropNoCarrier:sum(packetBytes) 0
scalar RSVPTE4.LSR1.ppp[2].queue queueLength:last 0
scalar RSVPTE4.LSR1.ppp[2].queue queueLength:max 0
scalar RSVPTE4.LSR1.ppp[2].queue queueLength:timeavg 0
scalar RSVPTE4.LSR1.ppp[2].queue queueBitLength:last 0
scalar RSVPTE4.LSR1.ppp[2].queue queueBitLength:max 0
scalar RSVPTE4.LSR1.ppp[2].queue queueBitLength:timeavg 0
scalar RSVPTE4.LSR1.ppp[2].queue outgoingPackets:count 0
scalar RSVPTE4.LSR1.ppp[2].queue outgoingPacketLengths:sum 0
scalar RSVPTE4.LSR1.ppp[2].queue incomingPackets:count 0
scalar RSVPTE4.LSR1.ppp[2].queue incomingPacketLengths:sum 0
scalar RSVPTE4.LSR1.ppp[2].queue droppedPacketsQueueOverflow:count 0
scalar RSVPTE4.LSR1.ppp[2].queue droppedPacketLengthsQueueOverflow:sum 0
scalar RSVPTE4.LSR1.ppp[2].ppp transmissionState:timeavg 0
scalar RSVPTE4.LSR1.ppp[2].ppp rxPkOk:count 0
scalar RSVPTE4.LSR1.ppp[2].ppp rxPkOk:sum(packetBytes) 0
scalar RSVPTE4.LSR1.ppp[2].ppp txPk:count 0
scalar RSVPTE4.LSR1.ppp[2].ppp txPk:sum(packetBytes) 0
scalar RSVPTE4.LSR1.ppp[2].ppp rcvdPkFromHl:count 0
scalar RSVPTE4.LSR1.ppp[2].ppp rcvdPkFromHl:sum(packetBytes) 0
scalar RSVPTE4.LSR1.ppp[2].ppp passedUpPk:count 0
scalar RSVPTE4.LSR1.ppp[2].ppp passedUpPk:sum(packetBytes) 0
scalar RSVPTE4.LSR1.ppp[2].ppp packetDropIncorrectlyReceived:count 0
scalar RSVPTE4.LSR1.ppp[2].ppp packetDropIncorrectlyReceived:sum(packetBytes) 0
scalar RSVPTE4.LSR1.ppp[2].ppp packetDropInterfaceDown:count 0
scalar RSVPTE4.LSR1.ppp[2].ppp packetDropInterfaceDown:sum(packetBytes) 0
scalar RSVPTE4.LSR1.ppp[2] packetDropInterfaceDown:count 0
scalar RSVPTE4.LSR1.ppp[2] packetDropInterfaceDown:sum(packetBytes) 0
scalar RSVPTE4.LSR1.ppp[2] packetDropNoCarrier:count 0
scalar RSVPTE4.LSR1.ppp[2] packetDropNoCarrier:sum(packetBytes) 0
scalar RSVPTE4.LSR1.ppp[3].queue queueLength:last 0
scalar RSVPTE4.LSR1.ppp[3].queue queueLength:max 0
scalar RSVPTE4.LSR1.ppp[3].queue queueLength:timeavg 0
scalar RSVPTE4.LSR1.ppp[3].queue queueBitLength:last 0
scalar RSVPTE4.LSR1.ppp[3].queue queueBitLength:max 0
scalar RSVPTE4.LSR1.ppp[3].queue queueBitLength:timeavg 0
scalar RSVPTE4.LSR1.ppp[3].queue outgoingPackets:count 3
scalar RSVPTE4.LSR1.ppp[3].queue outgoingPacketLengths:sum 1344
scalar RSVPTE4.LSR1.ppp[3].queue incomingPackets:count 3
scalar RSVPTE4.LSR1.ppp[3].queue incomingPacketLengths:sum 1344
scalar RSVPTE4.LSR1.ppp[3].queue droppedPacketsQueueOverflow:count 0
scalar RSVPTE4.LSR1.ppp[3].queue droppedPacketLengthsQueueOverflow:sum 0
scalar RSVPTE4.LSR1.ppp[3].ppp transmissionState:timeavg 0.00042000000000000002
scalar RSVPTE4.LSR1.ppp[3].ppp rxPkOk:count 598
scalar RSVPTE4.LSR1.ppp[3].ppp rxPkOk:sum(packetBytes) 97474
scalar RSVPTE4.LSR1.ppp[3].ppp txPk:count 3
scalar RSVPTE4.LSR1.ppp[3].ppp txPk:sum(packetBytes) 189
scalar RSVPTE4.LSR1.ppp[3].ppp rcvdPkFromHl:count 3
scalar RSVPTE4.LSR1.ppp[3].ppp rcvdPkFromHl:sum(packetBytes) 168
scalar RSVPTE4.LSR1.ppp[3].ppp passedUpPk:count 598
scalar RSVPTE4.LSR1.ppp[3].ppp passedUpPk:sum(packetBytes) 93288
scalar RSVPTE4.LSR1.ppp[3].ppp packetDropIncorrectlyReceived:count 0
scalar RSVPTE4.LSR1.ppp[3].ppp packetDropIncorrectlyReceived:sum(packetBytes) 0
scalar RSVPTE4.LSR1.ppp[3].ppp packetDropInterfaceDown:count 0
scalar RSVPTE4.LSR1.ppp[3].ppp packetDropInterfaceDown:sum(packetBytes) 0
scalar RSVPTE4.LSR1.ppp[3] packetDropInterfaceDown:count 0
scalar RSVPTE4.LSR1.ppp[3] packetDropInterfaceDown:sum(packetBytes) 0
scalar RSVPTE4.LSR1.ppp[3] packetDropNoCarrier:count 0
scalar RSVPTE4.LSR1.ppp[3] packetDropNoCarrier:sum(packetBytes) 0
scalar RSVPTE4.LSR1.ppp[4].queue queueLength:last 0
scalar RSVPTE4.LSR1.ppp[4].queue queueLength:max 0
scalar RSVPTE4.LSR1.ppp[4].queue queueLength:timeavg 0
scalar RSVPTE4.LSR1.ppp[4].queue queueBitLength:last 0
scalar RSVPTE4.LSR1.ppp[4].queue queueBitLength:max 0
scalar RSVPTE4.LSR1.ppp[4].queue queueBitLength:timeavg 0
scalar RSVPTE4.LSR1.ppp[4].queue outgoingPackets:count 0
scalar RSVPTE4.LSR1.ppp[4].queue outgoingPacketLengths:sum 0
scalar RSVPTE4.LSR1.ppp[4].queue incomingPackets:count 0
scalar RSVPTE4.LSR1.ppp[4].queue incomingPacketLengths:sum 0
scalar RSVPTE4.LSR1.ppp[4].queue droppedPacketsQueueOverflow:count 0
scalar RSVPTE4.LSR1.ppp[4].queue droppedPacketLengthsQueueOverflow:sum 0
scalar RSVPTE4.LSR1.ppp[4].ppp transmissionState:timeavg 0
scalar RSVPTE4.LSR1.ppp[4].ppp rxPkOk:count 0
scalar RSVPTE4.LSR1.ppp[4].ppp rxPkOk:sum(packetBytes) 0
scalar RSVPTE4.LSR1.ppp[4].ppp txPk:count 0
scalar RSVPTE4.LSR1.ppp[4].ppp txPk:sum(packetBytes) 0
scalar RSVPTE4.LSR1.ppp[4].ppp rcvdPkFromHl:count 0
scalar RSVPTE4.LSR1.ppp[4].ppp rcvdPkFromHl:sum(packetBytes) 0
scalar RSVPTE4.LSR1.ppp[4].ppp passedUpPk:count 0
scalar RSVPTE4.LSR1.ppp[4].ppp passedUpPk:sum(packetBytes) 0
scalar RSVPTE4.LSR1.ppp[4].ppp packetDropIncorrectlyReceived:count 0
scalar RSVPTE4.LSR1.ppp[4].ppp packetDropIncorrectlyReceived:sum(packetBytes) 0
scalar RSVPTE4.LSR1.ppp[4].ppp packetDropInterfaceDown:count 0
scalar RSVPTE4.LSR1.ppp[4].ppp packetDropInterfaceDown:sum(packetBytes) 0
scalar RSVPTE4.LSR1.ppp[4] packetDropInterfaceDown:count 0
scalar RSVPTE4.LSR1.ppp[4] packetDropInterfaceDown:sum(packetBytes) 0
scalar RSVPTE4.LSR1.ppp[4] packetDropNoCarrier:count 0
scalar RSVPTE4.LSR1.ppp[4] packetDropNoCarrier:sum(packetBytes) 0
scalar RSVPTE4.LSR2.ipv4.ip packetDropAddressResolutionFailed:count 0
scalar RSVPTE4.LSR2.ipv4.ip packetDropAddressResolutionFailed:sum(packetBytes) 0
scalar RSVPTE4.LSR2.ipv4.ip packetDropHopLimitReached:count 0
scalar RSVPTE4.LSR2.ipv4.ip packetDropHopLimitReached:sum(packetBytes) 0
scalar RSVPTE4.LSR2.ipv4.ip packetDropForwardingDisabled:count 0
scalar RSVPTE4.LSR2.ipv4.ip packetDropForwardingDisabled:sum(packetBytes) 0
scalar RSVPTE4.LSR2.ipv4.ip packetDropLifetimeExpired:count 0
scalar RSVPTE4.LSR2.ipv4.ip packetDropLifetimeExpired:sum(packetBytes) 0
scalar RSVPTE4.LSR2.ipv4.ip packetDropNoInterfaceFound:count 0
scalar RSVPTE4.LSR2.ipv4.ip packetDropNoInterfaceFound:sum(packetBytes) 0
scalar RSVPTE4.LSR2.ipv4.ip packetDropNoRouteFound:count 0
scalar RSVPTE4.LSR2.ipv4.ip packetDropNoRouteFound:sum(packetBytes) 0
scalar RSVPTE4.LSR2.ipv4.ip packetDropUndefined:count 0
scalar RSVPTE4.LSR2.ipv4.ip packetDropUndefined:sum(packetBytes) 0
scalar RSVPTE4.LSR2.ipv4.arp arpResolutionFailed:count 0
scalar RSVPTE4.LSR2.ipv4.arp arpResolutionCompleted:count 0
scalar RSVPTE4.LSR2.ipv4.arp arpResolutionInitiated:count 0
scalar RSVPTE4.LSR2.ipv4.arp arpReplySent:count 0
scalar RSVPTE4.LSR2.ipv4.arp arpReplySent:sum(packetBytes) 0
scalar RSVPTE4.LSR2.ipv4.arp arpRequestSent:count 0
scalar RSVPTE4.LSR2.ipv4.arp arpRequestSent:sum(packetBytes) 0
scalar RSVPTE4.LSR2.lo[0].lo rcvdPkFromHl:count 0
scalar RSVPTE4.LSR2.lo[0].lo rcvdPkFromHl:sum(packetBytes) 0
scalar RSVPTE4.LSR2.lo[0].lo passedUpPk:count 0
scalar RSVPTE4.LSR2.lo[0].lo passedUpPk:sum(packetBytes) 0
scalar RSVPTE4.LSR2.lo[0] packetDropInterfaceDown:count 0
scalar RSVPTE4.LSR2.lo[0] packetDropInterfaceDown:sum(packetBytes) 0
scalar RSVPTE4.LSR2.lo[0] packetDropNoCarrier:count 0
scalar RSVPTE4.LSR2.lo[0] packetDropNoCarrier:sum(packetBytes) 0
scalar RSVPTE4.LSR2.ppp[0].queue queueLength:last 0
scalar RSVPTE4.LSR2.ppp[0].queue queueLength:max 2
scalar RSVPTE4.LSR2.ppp[0].queue queueLength:timeavg 0.007184860827000001
scalar RSVPTE4.LSR2.ppp[0].queue queueBitLength:last 0
scalar RSVPTE4.LSR2.ppp[0].queue queueBitLength:max 10528
scalar RSVPTE4.LSR2.ppp[0].queue queueBitLength:timeavg 17.495012780088
scalar RSVPTE4.LSR2.ppp[0].queue outgoingPackets:count 71
scalar RSVPTE4.LSR2.ppp[0].queue outgoingPacketLengths:sum 50968
scalar RSVPTE4.LSR2.ppp[0].queue incomingPackets:count 71
scalar RSVPTE4.LSR2.ppp[0].queue incomingPacketLengths:sum 50968
scalar RSVPTE4.LSR2.ppp[0].queue droppedPacketsQueueOverflow:count 0
scalar RSVPTE4.LSR2.ppp[0].queue droppedPacketLengthsQueueOverflow:sum 0
scalar RSVPTE4.LSR2.ppp[0].ppp transmissionState:timeavg 0.015262222220500036
scalar RSVPTE4.LSR2.ppp[0].ppp rxPkOk:count 659
scalar RSVPTE4.LSR2.ppp[0].ppp rxPkOk:sum(packetBytes) 103875
scalar RSVPTE4.LSR2.ppp[0].ppp txPk:count 71
scalar RSVPTE4.LSR2.ppp[0].ppp txPk:sum(packetBytes) 6868
scalar RSVPTE4.LSR2.ppp[0].ppp rcvdPkFromHl:count 71
scalar RSVPTE4.LSR2.ppp[0].ppp rcvdPkFromHl:sum(packetBytes) 6371
scalar RSVPTE4.LSR2.ppp[0].ppp passedUpPk:count 659
scalar RSVPTE4.LSR2.ppp[0].ppp passedUpPk:sum(packetBytes) 99262
scalar RSVPTE4.LSR2.ppp[0].ppp packetDropIncorrectlyReceived:count 0
scalar RSVPTE4.LSR2.ppp[0].ppp packetDropIncorrectlyReceived:sum(packetBytes) 0
scalar RSVPTE4.LSR2.ppp[0].ppp packetDropInterfaceDown:count 0
scalar RSVPTE4.LSR2.ppp[0].ppp packetDropInterfaceDown:sum(packetBytes) 0
scalar RSVPTE4.LSR2.ppp[0] packetDropInterfaceDown:count 0
scalar RSVPTE4.LSR2.ppp[0] packetDropInterfaceDown:sum(packetBytes) 0
scalar RSVPTE4.LSR2.ppp[0] packetDropNoCarrier:count 0
scalar RSVPTE4.LSR2.ppp[0] packetDropNoCarrier:sum(packetBytes) 0
scalar RSVPTE4.LSR2.ppp[1].queue queueLength:last 0
scalar RSVPTE4.LSR2.ppp[1].queue queueLength:max 2
scalar RSVPTE4.LSR2.ppp[1].queue queueLength:timeavg 0.0049828381471666693
scalar RSVPTE4.LSR2.ppp[1].queue queueBitLength:last 0
scalar RSVPTE4.LSR2.ppp[1].queue queueBitLength:max 4928
scalar RSVPTE4.LSR2.ppp[1].queue queueBitLength:timeavg 3.2325784309866652
scalar RSVPTE4.LSR2.ppp[1].queue outgoingPackets:count 460
scalar RSVPTE4.LSR2.ppp[1].queue outgoingPacketLengths:sum 558584
scalar RSVPTE4.LSR2.ppp[1].queue incomingPackets:count 460
scalar RSVPTE4.LSR2.ppp[1].queue incomingPacketLengths:sum 558584
scalar RSVPTE4.LSR2.ppp[1].queue droppedPacketsQueueOverflow:count 0
scalar RSVPTE4.LSR2.ppp[1].queue droppedPacketLengthsQueueOverflow:sum 0
scalar RSVPTE4.LSR2.ppp[1].ppp transmissionState:timeavg 0.16204666667399972
scalar RSVPTE4.LSR2.ppp[1].ppp rxPkOk:count 51
scalar RSVPTE4.LSR2.ppp[1].ppp rxPkOk:sum(packetBytes) 5946
scalar RSVPTE4.LSR2.ppp[1].ppp txPk:count 460
scalar RSVPTE4.LSR2.ppp[1].ppp txPk:sum(packetBytes) 73043
scalar RSVPTE4.LSR2.ppp[1].ppp rcvdPkFromHl:count 460
scalar RSVPTE4.LSR2.ppp[1].ppp rcvdPkFromHl:sum(packetBytes) 69823
scalar RSVPTE4.LSR2.ppp[1].ppp passedUpPk:count 51
scalar RSVPTE4.LSR2.ppp[1].ppp passedUpPk:sum(packetBytes) 5589
scalar RSVPTE4.LSR2.ppp[1].ppp packetDropIncorrectlyReceived:count 0
scalar RSVPTE4.LSR2.ppp[1].ppp packetDropIncorrectlyReceived:sum(packetBytes) 0
scalar RSVPTE4.LSR2.ppp[1].ppp packetDropInterfaceDown:count 0
scalar RSVPTE4.LSR2.ppp[1].ppp packetDropInterfaceDown:sum(packetBytes) 0
scalar RSVPTE4.LSR2.ppp[1] packetDropInterfaceDown:count 0
scalar RSVPTE4.LSR2.ppp[1] packetDropInterfaceDown:sum(packetBytes) 0
scalar RSVPTE4.LSR2.ppp[1] packetDropNoCarrier:count 0
scalar RSVPTE4.LSR2.ppp[1] packetDropNoCarrier:sum(packetBytes) 0
scalar RSVPTE4.LSR2.ppp[2].queue queueLength:last 0
scalar RSVPTE4.LSR2.ppp[2].queue queueLength:max 3
scalar RSVPTE4.LSR2.ppp[2].queue queueLength:timeavg 0.0075835483284999979
scalar RSVPTE4.LSR2.ppp[2].queue queueBitLength:last 0
scalar RSVPTE4.LSR2.ppp[2].queue queueBitLength:max 7968
scalar RSVPTE4.LSR2.ppp[2].queue queueBitLength:timeavg 20.022110762586667
scalar RSVPTE4.LSR2.ppp[2].queue outgoingPackets:count 245
scalar RSVPTE4.LSR2.ppp[2].queue outgoingPacketLengths:sum 267728
scalar RSVPTE4.LSR2.ppp[2].queue incomingPackets:count 245
scalar RSVPTE4.LSR2.ppp[2].queue incomingPacketLengths:sum 267728
scalar RSVPTE4.LSR2.ppp[2].queue droppedPacketsQueueOverflow:count 0
scalar RSVPTE4.LSR2.ppp[2].queue droppedPacketLengthsQueueOverflow:sum 0
scalar RSVPTE4.LSR2.ppp[2].ppp transmissionState:timeavg 0.078179999988500101
scalar RSVPTE4.LSR2.ppp[2].ppp rxPkOk:count 48
scalar RSVPTE4.LSR2.ppp[2].ppp rxPkOk:sum(packetBytes) 4062
scalar RSVPTE4.LSR2.ppp[2].ppp txPk:count 245
scalar RSVPTE4.LSR2.ppp[2].ppp txPk:sum(packetBytes) 35181
scalar RSVPTE4.LSR2.ppp[2].ppp rcvdPkFromHl:count 245
scalar RSVPTE4.LSR2.ppp[2].ppp rcvdPkFromHl:sum(packetBytes) 33466
scalar RSVPTE4.LSR2.ppp[2].ppp passedUpPk:count 48
scalar RSVPTE4.LSR2.ppp[2].ppp passedUpPk:sum(packetBytes) 3726
scalar RSVPTE4.LSR2.ppp[2].ppp packetDropIncorrectlyReceived:count 0
scalar RSVPTE4.LSR2.ppp[2].ppp packetDropIncorrectlyReceived:sum(packetBytes) 0
scalar RSVPTE4.LSR2.ppp[2].ppp packetDropInterfaceDown:count 0
scalar RSVPTE4.LSR2.ppp[2].ppp packetDropInterfaceDown:sum(packetBytes) 0
scalar RSVPTE4.LSR2.ppp[2] packetDropInterfaceDown:count 0
scalar RSVPTE4.LSR2.ppp[2] packetDropInterfaceDown:sum(packetBytes) 0
scalar RSVPTE4.LSR2.ppp[2] packetDropNoCarrier:count 0
scalar RSVPTE4.LSR2.ppp[2] packetDropNoCarrier:sum(packetBytes) 0
scalar RSVPTE4.LSR3.ipv4.ip packetDropAddressResolutionFailed:count 0
scalar RSVPTE4.LSR3.ipv4.ip packetDropAddressResolutionFailed:sum(packetBytes) 0
scalar RSVPTE4.LSR3.ipv4.ip packetDropHopLimitReached:count 0
scalar RSVPTE4.LSR3.ipv4.ip packetDropHopLimitReached:sum(packetBytes) 0
scalar RSVPTE4.LSR3.ipv4.ip packetDropForwardingDisabled:count 0
scalar RSVPTE4.LSR3.ipv4.ip packetDropForwardingDisabled:sum(packetBytes) 0
scalar RSVPTE4.LSR3.ipv4.ip packetDropLifetimeExpired:count 0
scalar RSVPTE4.LSR3.ipv4.ip packetDropLifetimeExpired:sum(packetBytes) 0
scalar RSVPTE4.LSR3.ipv4.ip packetDropNoInterfaceFound:count 0
scalar RSVPTE4.LSR3.ipv4.ip packetDropNoInterfaceFound:sum(packetBytes) 0
scalar RSVPTE4.LSR3.ipv4.ip packetDropNoRouteFound:count 0
scalar RSVPTE4.LSR3.ipv4.ip packetDropNoRouteFound:sum(packetBytes) 0
scalar RSVPTE4.LSR3.ipv4.ip packetDropUndefined:count 0
scalar RSVPTE4.LSR3.ipv4.ip packetDropUndefined:sum(packetBytes) 0
scalar RSVPTE4.LSR3.ipv4.arp arpResolutionFailed:count 0
scalar RSVPTE4.LSR3.ipv4.arp arpResolutionCompleted:count 0
scalar RSVPTE4.LSR3.ipv4.arp arpResolutionInitiated:count 0
scalar RSVPTE4.LSR3.ipv4.arp arpReplySent:count 0
scalar RSVPTE4.LSR3.ipv4.arp arpReplySent:sum(packetBytes) 0
scalar RSVPTE4.LSR3.ipv4.arp arpRequestSent:count 0
scalar RSVPTE4.LSR3.ipv4.arp arpRequestSent:sum(packetBytes) 0
scalar RSVPTE4.LSR3.lo[0].lo rcvdPkFromHl:count 0
scalar RSVPTE4.LSR3.lo[0].lo rcvdPkFromHl:sum(packetBytes) 0
scalar RSVPTE4.LSR3.lo[0].lo passedUpPk:count 0
scalar RSVPTE4.LSR3.lo[0].lo passedUpPk:sum(packetBytes) 0
scalar RSVPTE4.LSR3.lo[0] packetDropInterfaceDown:count 0
scalar RSVPTE4.LSR3.lo[0] packetDropInterfaceDown:sum(packetBytes) 0
scalar RSVPTE4.LSR3.lo[0] packetDropNoCarrier:count 0
scalar RSVPTE4.LSR3.lo[0] packetDropNoCarrier:sum(packetBytes) 0
scalar RSVPTE4.LSR3.ppp[0].queue queueLength:last 0
scalar RSVPTE4.LSR3.ppp[0].queue queueLength:max 4
scalar RSVPTE4.LSR3.ppp[0].queue queueLength:timeavg 0.013920711153999996
scalar RSVPTE4.LSR3.ppp[0].queue queueBitLength:last 0
scalar RSVPTE4.LSR3.ppp[0].queue queueBitLength:max 10848
scalar RSVPTE4.LSR3.ppp[0].queue queueBitLength:timeavg 34.516846538944002
scalar RSVPTE4.LSR3.ppp[0].queue outgoingPackets:count 65
scalar RSVPTE4.LSR3.ppp[0].queue outgoingPacketLengths:sum 48080
scalar RSVPTE4.LSR3.ppp[0].queue incomingPackets:count 65
scalar RSVPTE4.LSR3.ppp[0].queue incomingPacketLengths:sum 48080
scalar RSVPTE4.LSR3.ppp[0].queue droppedPacketsQueueOverflow:count 0
scalar RSVPTE4.LSR3.ppp[0].queue droppedPacketLengthsQueueOverflow:sum 0
scalar RSVPTE4.LSR3.ppp[0].ppp transmissionState:timeavg 0.014366666665000033
scalar RSVPTE4.LSR3.ppp[0].ppp rxPkOk:count 50
scalar RSVPTE4.LSR3.ppp[0].ppp rxPkOk:sum(packetBytes) 4692
scalar RSVPTE4.LSR3.ppp[0].ppp txPk:count 65
scalar RSVPTE4.LSR3.ppp[0].ppp txPk:sum(packetBytes) 6465
scalar RSVPTE4.LSR3.ppp[0].ppp rcvdPkFromHl:count 65
scalar RSVPTE4.LSR3.ppp[0].ppp rcvdPkFromHl:sum(packetBytes) 6010
scalar RSVPTE4.LSR3.ppp[0].ppp passedUpPk:count 50
scalar RSVPTE4.LSR3.ppp[0].ppp passedUpPk:sum(packetBytes) 4342
scalar RSVPTE4.LSR3.ppp[0].ppp packetDropIncorrectlyReceived:count 0
scalar RSVPTE4.LSR3.ppp[0].ppp packetDropIncorrectlyReceived:sum(packetBytes) 0
scalar RSVPTE4.LSR3.ppp[0].ppp packetDropInterfaceDown:count 0
scalar RSVPTE4.LSR3.ppp[0].ppp packetDropInterfaceDown:sum(packetBytes) 0
scalar RSVPTE4.LSR3.ppp[0] packetDropInterfaceDown:count 0
scalar RSVPTE4.LSR3.ppp[0] packetDropInterfaceDown:sum(packetBytes) 0
scalar RSVPTE4.LSR3.ppp[0] packetDropNoCarrier:count 0
scalar RSVPTE4.LSR3.ppp[0] packetDropNoCarrier:sum(packetBytes) 0
scalar RSVPTE4.LSR3.ppp[1].queue queueLength:last 0
scalar RSVPTE4.LSR3.ppp[1].queue queueLength:max 2
scalar RSVPTE4.LSR3.ppp[1].queue queueLength:timeavg 0.0041025654231666665
scalar RSVPTE4.LSR3.ppp[1].queue queueBitLength:last 0
scalar RSVPTE4.LSR3.ppp[1].queue queueBitLength:max 9536
scalar RSVPTE4.LSR3.ppp[1].queue queueBitLength:timeavg 10.158953541978667
scalar RSVPTE4.LSR3.ppp[1].queue outgoingPackets:count 35
scalar RSVPTE4.LSR3.ppp[1].queue outgoingPacketLengths:sum 25352
scalar RSVPTE4.LSR3.ppp[1].queue incomingPackets:count 35
scalar RSVPTE4.LSR3.ppp[1].queue incomingPacketLengths:sum 25352
scalar RSVPTE4.LSR3.ppp[1].queue droppedPacketsQueueOverflow:count 0
scalar RSVPTE4.LSR3.ppp[1].queue droppedPacketLengthsQueueOverflow:sum 0
scalar RSVPTE4.LSR3.ppp[1].ppp transmissionState:timeavg 0.0075866666654999986
scalar RSVPTE4.LSR3.ppp[1].ppp rxPkOk:count 46
scalar RSVPTE4.LSR3.ppp[1].ppp rxPkOk:sum(packetBytes) 5437
scalar RSVPTE4.LSR3.ppp[1].ppp txPk:count 35
scalar RSVPTE4.LSR3.ppp[1].ppp txPk:sum(packetBytes) 3414
scalar RSVPTE4.LSR3.ppp[1].ppp rcvdPkFromHl:count 35
scalar RSVPTE4.LSR3.ppp[1].ppp rcvdPkFromHl:sum(packetBytes) 3169
scalar RSVPTE4.LSR3.ppp[1].ppp passedUpPk:count 46
scalar RSVPTE4.LSR3.ppp[1].ppp passedUpPk:sum(packetBytes) 5115
scalar RSVPTE4.LSR3.ppp[1].ppp packetDropIncorrectlyReceived:count 0
scalar RSVPTE4.LSR3.ppp[1].ppp packetDropIncorrectlyReceived:sum(packetBytes) 0
scalar RSVPTE4.LSR3.ppp[1].ppp packetDropInterfaceDown:count 0
scalar RSVPTE4.LSR3.ppp[1].ppp packetDropInterfaceDown:sum(packetBytes) 0
scalar RSVPTE4.LSR3.ppp[1] packetDropInterfaceDown:count 0
scalar RSVPTE4.LSR3.ppp[1] packetDropInterfaceDown:sum(packetBytes) 0
scalar RSVPTE4.LSR3.ppp[1] packetDropNoCarrier:count 0
scalar RSVPTE4.LSR3.ppp[1] packetDropNoCarrier:sum(packetBytes) 0
scalar RSVPTE4.LSR3.ppp[2].queue queueLength:last 0
scalar RSVPTE4.LSR3.ppp[2].queue queueLength:max 3
scalar RSVPTE4.LSR3.ppp[2].queue queueLength:timeavg 0.015060159439333328
scalar RSVPTE4.LSR3.ppp[2].queue queueBitLength:last 0
scalar RSVPTE4.LSR3.ppp[2].queue queueBitLength:max 17184
scalar RSVPTE4.LSR3.ppp[2].queue queueBitLength:timeavg 47.571516609077328
scalar RSVPTE4.LSR3.ppp[2].queue outgoingPackets:count 69
scalar RSVPTE4.LSR3.ppp[2].queue outgoingPacketLengths:sum 53904
scalar RSVPTE4.LSR3.ppp[2].queue incomingPackets:count 69
scalar RSVPTE4.LSR3.ppp[2].queue incomingPacketLengths:sum 53904
scalar RSVPTE4.LSR3.ppp[2].queue droppedPacketsQueueOverflow:count 0
scalar RSVPTE4.LSR3.ppp[2].queue droppedPacketLengthsQueueOverflow:sum 0
scalar RSVPTE4.LSR3.ppp[2].ppp transmissionState:timeavg 0.016046666665000035
scalar RSVPTE4.LSR3.ppp[2].ppp rxPkOk:count 56
scalar RSVPTE4.LSR3.ppp[2].ppp rxPkOk:sum(packetBytes) 5502
scalar RSVPTE4.LSR3.ppp[2].ppp txPk:count 69
scalar RSVPTE4.LSR3.ppp[2].ppp txPk:sum(packetBytes) 7221
scalar RSVPTE4.LSR3.ppp[2].ppp rcvdPkFromHl:count 69
scalar RSVPTE4.LSR3.ppp[2].ppp rcvdPkFromHl:sum(packetBytes) 6738
scalar RSVPTE4.LSR3.ppp[2].ppp passedUpPk:count 56
scalar RSVPTE4.LSR3.ppp[2].ppp passedUpPk:sum(packetBytes) 5110
scalar RSVPTE4.LSR3.ppp[2].ppp packetDropIncorrectlyReceived:count 0
scalar RSVPTE4.LSR3.ppp[2].ppp packetDropIncorrectlyReceived:sum(packetBytes) 0
scalar RSVPTE4.LSR3.ppp[2].ppp packetDropInterfaceDown:count 0
scalar RSVPTE4.LSR3.ppp[2].ppp packetDropInterfaceDown:sum(packetBytes) 0
scalar RSVPTE4.LSR3.ppp[2] packetDropInterfaceDown:count 0
scalar RSVPTE4.LSR3.ppp[2] packetDropInterfaceDown:sum(packetBytes) 0
scalar RSVPTE4.LSR3.ppp[2] packetDropNoCarrier:count 0
scalar RSVPTE4.LSR3.ppp[2] packetDropNoCarrier:sum(packetBytes) 0
scalar RSVPTE4.LSR4.ipv4.ip packetDropAddressResolutionFailed:count 0
scalar RSVPTE4.LSR4.ipv4.ip packetDropAddressResolutionFailed:sum(packetBytes) 0
scalar RSVPTE4.LSR4.ipv4.ip packetDropHopLimitReached:count 0
scalar RSVPTE4.LSR4.ipv4.ip packetDropHopLimitReached:sum(packetBytes) 0
scalar RSVPTE4.LSR4.ipv4.ip packetDropForwardingDisabled:count 0
scalar RSVPTE4.LSR4.ipv4.ip packetDropForwardingDisabled:sum(packetBytes) 0
scalar RSVPTE4.LSR4.ipv4.ip packetDropLifetimeExpired:count 0
scalar RSVPTE4.LSR4.ipv4.ip packetDropLifetimeExpired:sum(packetBytes) 0
scalar RSVPTE4.LSR4.ipv4.ip packetDropNoInterfaceFound:count 0
scalar RSVPTE4.LSR4.ipv4.ip packetDropNoInterfaceFound:sum(packetBytes) 0
scalar RSVPTE4.LSR4.ipv4.ip packetDropNoRouteFound:count 64
scalar RSVPTE4.LSR4.ipv4.ip packetDropNoRouteFound:sum(packetBytes) 6784
scalar RSVPTE4.LSR4.ipv4.ip packetDropUndefined:count 0
scalar RSVPTE4.LSR4.ipv4.ip packetDropUndefined:sum(packetBytes) 0
scalar RSVPTE4.LSR4.ipv4.arp arpResolutionFailed:count 0
scalar RSVPTE4.LSR4.ipv4.arp arpResolutionCompleted:count 0
scalar RSVPTE4.LSR4.ipv4.arp arpResolutionInitiated:count 0
scalar RSVPTE4.LSR4.ipv4.arp arpReplySent:count 0
scalar RSVPTE4.LSR4.ipv4.arp arpReplySent:sum(packetBytes) 0
scalar RSVPTE4.LSR4.ipv4.arp arpRequestSent:count 0
scalar RSVPTE4.LSR4.ipv4.arp arpRequestSent:sum(packetBytes) 0
scalar RSVPTE4.LSR4.lo[0].lo rcvdPkFromHl:count 0
scalar RSVPTE4.LSR4.lo[0].lo rcvdPkFromHl:sum(packetBytes) 0
scalar RSVPTE4.LSR4.lo[0].lo passedUpPk:count 0
scalar RSVPTE4.LSR4.lo[0].lo passedUpPk:sum(packetBytes) 0
scalar RSVPTE4.LSR4.lo[0] packetDropInterfaceDown:count 0
scalar RSVPTE4.LSR4.lo[0] packetDropInterfaceDown:sum(packetBytes) 0
scalar RSVPTE4.LSR4.lo[0] packetDropNoCarrier:count 0
scalar RSVPTE4.LSR4.lo[0] packetDropNoCarrier:sum(packetBytes) 0
scalar RSVPTE4.LSR4.ppp[0].queue queueLength:last 0
scalar RSVPTE4.LSR4.ppp[0].queue queueLength:max 3
scalar RSVPTE4.LSR4.ppp[0].queue queueLength:timeavg 0.011098989777333331
scalar RSVPTE4.LSR4.ppp[0].queue queueBitLength:last 0
scalar RSVPTE4.LSR4.ppp[0].queue queueBitLength:max 15456
scalar RSVPTE4.LSR4.ppp[0].queue queueBitLength:timeavg 19.943612031690673
scalar RSVPTE4.LSR4.ppp[0].queue outgoingPackets:count 51
scalar RSVPTE4.LSR4.ppp[0].queue outgoingPacketLengths:sum 44712
scalar RSVPTE4.LSR4.ppp[0].queue incomingPackets:count 51
scalar RSVPTE4.LSR4.ppp[0].queue incomingPacketLengths:sum 44712
scalar RSVPTE4.LSR4.ppp[0].queue droppedPacketsQueueOverflow:count 0
scalar RSVPTE4.LSR4.ppp[0].queue droppedPacketLengthsQueueOverflow:sum 0
scalar RSVPTE4.LSR4.ppp[0].ppp transmissionState:timeavg 0.013213333332166685
scalar RSVPTE4.LSR4.ppp[0].ppp rxPkOk:count 408
scalar RSVPTE4.LSR4.ppp[0].ppp rxPkOk:sum(packetBytes) 64869
scalar RSVPTE4.LSR4.ppp[0].ppp txPk:count 51
scalar RSVPTE4.LSR4.ppp[0].ppp txPk:sum(packetBytes) 5946
scalar RSVPTE4.LSR4.ppp[0].ppp rcvdPkFromHl:count 51
scalar RSVPTE4.LSR4.ppp[0].ppp rcvdPkFromHl:sum(packetBytes) 5589
scalar RSVPTE4.LSR4.ppp[0].ppp passedUpPk:count 408
scalar RSVPTE4.LSR4.ppp[0].ppp passedUpPk:sum(packetBytes) 62013
scalar RSVPTE4.LSR4.ppp[0].ppp packetDropIncorrectlyReceived:count 0
scalar RSVPTE4.LSR4.ppp[0].ppp packetDropIncorrectlyReceived:sum(packetBytes) 0
scalar RSVPTE4.LSR4.ppp[0].ppp packetDropInterfaceDown:count 0
scalar RSVPTE4.LSR4.ppp[0].ppp packetDropInterfaceDown:sum(packetBytes) 0
scalar RSVPTE4.LSR4.ppp[0] packetDropInterfaceDown:count 0
scalar RSVPTE4.LSR4.ppp[0] packetDropInterfaceDown:sum(packetBytes) 0
scalar RSVPTE4.LSR4.ppp[0] packetDropNoCarrier:count 0
scalar RSVPTE4.LSR4.ppp[0] packetDropNoCarrier:sum(packetBytes) 0
scalar RSVPTE4.LSR4.ppp[1].queue queueLength:last 0
scalar RSVPTE4.LSR4.ppp[1].queue queueLength:max 3
scalar RSVPTE4.LSR4.ppp[1].queue queueLength:timeavg 0.0029737875424999997
scalar RSVPTE4.LSR4.ppp[1].queue queueBitLength:last 0
scalar RSVPTE4.LSR4.ppp[1].queue queueBitLength:max 3040
scalar RSVPTE4.LSR4.ppp[1].queue queueBitLength:timeavg 3.3279076313653335
scalar RSVPTE4.LSR4.ppp[1].queue outgoingPackets:count 389
scalar RSVPTE4.LSR4.ppp[1].queue outgoingPacketLengths:sum 466800
scalar RSVPTE4.LSR4.ppp[1].queue incomingPackets:count 389
scalar RSVPTE4.LSR4.ppp[1].queue incomingPacketLengths:sum 466800
scalar RSVPTE4.LSR4.ppp[1].queue droppedPacketsQueueOverflow:count 0
scalar RSVPTE4.LSR4.ppp[1].queue droppedPacketLengthsQueueOverflow:sum 0
scalar RSVPTE4.LSR4.ppp[1].ppp transmissionState:timeavg 0.13571777778433325
scalar RSVPTE4.LSR4.ppp[1].ppp rxPkOk:count 32
scalar RSVPTE4.LSR4.ppp[1].ppp rxPkOk:sum(packetBytes) 2694
scalar RSVPTE4.LSR4.ppp[1].ppp txPk:count 389
scalar RSVPTE4.LSR4.ppp[1].ppp txPk:sum(packetBytes) 61073
scalar RSVPTE4.LSR4.ppp[1].ppp rcvdPkFromHl:count 389
scalar RSVPTE4.LSR4.ppp[1].ppp rcvdPkFromHl:sum(packetBytes) 58350
scalar RSVPTE4.LSR4.ppp[1].ppp passedUpPk:count 32
scalar RSVPTE4.LSR4.ppp[1].ppp passedUpPk:sum(packetBytes) 2470
scalar RSVPTE4.LSR4.ppp[1].ppp packetDropIncorrectlyReceived:count 0
scalar RSVPTE4.LSR4.ppp[1].ppp packetDropIncorrectlyReceived:sum(packetBytes) 0
scalar RSVPTE4.LSR4.ppp[1].ppp packetDropInterfaceDown:count 0
scalar RSVPTE4.LSR4.ppp[1].ppp packetDropInterfaceDown:sum(packetBytes) 0
scalar RSVPTE4.LSR4.ppp[1] packetDropInterfaceDown:count 0
scalar RSVPTE4.LSR4.ppp[1] packetDropInterfaceDown:sum(packetBytes) 0
scalar RSVPTE4.LSR4.ppp[1] packetDropNoCarrier:count 0
scalar RSVPTE4.LSR4.ppp[1] packetDropNoCarrier:sum(packetBytes) 0
scalar RSVPTE4.LSR4.ppp[2].queue queueLength:last 0
scalar RSVPTE4.LSR4.ppp[2].queue queueLength:max 2
scalar RSVPTE4.LSR4.ppp[2].queue queueLength:timeavg 0.0043770901526666659
scalar RSVPTE4.LSR4.ppp[2].queue queueBitLength:last 0
scalar RSVPTE4.LSR4.ppp[2].queue queueBitLength:max 1568
scalar RSVPTE4.LSR4.ppp[2].queue queueBitLength:timeavg 5.8828539078719997
scalar RSVPTE4.LSR4.ppp[2].queue outgoingPackets:count 46
scalar RSVPTE4.LSR4.ppp[2].queue outgoingPacketLengths:sum 40920
scalar RSVPTE4.LSR4.ppp[2].queue incomingPackets:count 46
scalar RSVPTE4.LSR4.ppp[2].queue incomingPacketLengths:sum 40920
scalar RSVPTE4.LSR4.ppp[2].queue droppedPacketsQueueOverflow:count 0
scalar RSVPTE4.LSR4.ppp[2].queue droppedPacketLengthsQueueOverflow:sum 0
scalar RSVPTE4.LSR4.ppp[2].ppp transmissionState:timeavg 0.012082222221166679
scalar RSVPTE4.LSR4.ppp[2].ppp rxPkOk:count 33
scalar RSVPTE4.LSR4.ppp[2].ppp rxPkOk:sum(packetBytes) 3358
scalar RSVPTE4.LSR4.ppp[2].ppp txPk:count 46
scalar RSVPTE4.LSR4.ppp[2].ppp txPk:sum(packetBytes) 5437
scalar RSVPTE4.LSR4.ppp[2].ppp rcvdPkFromHl:count 46
scalar RSVPTE4.LSR4.ppp[2].ppp rcvdPkFromHl:sum(packetBytes) 5115
scalar RSVPTE4.LSR4.ppp[2].ppp passedUpPk:count 33
scalar RSVPTE4.LSR4.ppp[2].ppp passedUpPk:sum(packetBytes) 3127
scalar RSVPTE4.LSR4.ppp[2].ppp packetDropIncorrectlyReceived:count 0
scalar RSVPTE4.LSR4.ppp[2].ppp packetDropIncorrectlyReceived:sum(packetBytes) 0
scalar RSVPTE4.LSR4.ppp[2].ppp packetDropInterfaceDown:count 0
scalar RSVPTE4.LSR4.ppp[2].ppp packetDropInterfaceDown:sum(packetBytes) 0
scalar RSVPTE4.LSR4.ppp[2] packetDropInterfaceDown:count 0
scalar RSVPTE4.LSR4.ppp[2] packetDropInterfaceDown:sum(packetBytes) 0
scalar RSVPTE4.LSR4.ppp[2] packetDropNoCarrier:count 0
scalar RSVPTE4.LSR4.ppp[2] packetDropNoCarrier:sum(packetBytes) 0
scalar RSVPTE4.LSR5.ipv4.ip packetDropAddressResolutionFailed:count 0
scalar RSVPTE4.LSR5.ipv4.ip packetDropAddressResolutionFailed:sum(packetBytes) 0
scalar RSVPTE4.LSR5.ipv4.ip packetDropHopLimitReached:count 0
scalar RSVPTE4.LSR5.ipv4.ip packetDropHopLimitReached:sum(packetBytes) 0
scalar RSVPTE4.LSR5.ipv4.ip packetDropForwardingDisabled:count 0
scalar RSVPTE4.LSR5.ipv4.ip packetDropForwardingDisabled:sum(packetBytes) 0
scalar RSVPTE4.LSR5.ipv4.ip packetDropLifetimeExpired:count 0
scalar RSVPTE4.LSR5.ipv4.ip packetDropLifetimeExpired:sum(packetBytes) 0
scalar RSVPTE4.LSR5.ipv4.ip packetDropNoInterfaceFound:count 0
scalar RSVPTE4.LSR5.ipv4.ip packetDropNoInterfaceFound:sum(packetBytes) 0
scalar RSVPTE4.LSR5.ipv4.ip packetDropNoRouteFound:count 0
scalar RSVPTE4.LSR5.ipv4.ip packetDropNoRouteFound:sum(packetBytes) 0
scalar RSVPTE4.LSR5.ipv4.ip packetDropUndefined:count 0
scalar RSVPTE4.LSR5.ipv4.ip packetDropUndefined:sum(packetBytes) 0
scalar RSVPTE4.LSR5.ipv4.arp arpResolutionFailed:count 0
scalar RSVPTE4.LSR5.ipv4.arp arpResolutionCompleted:count 0
scalar RSVPTE4.LSR5.ipv4.arp arpResolutionInitiated:count 0
scalar RSVPTE4.LSR5.ipv4.arp arpReplySent:count 0
scalar RSVPTE4.LSR5.ipv4.arp arpReplySent:sum(packetBytes) 0
scalar RSVPTE4.LSR5.ipv4.arp arpRequestSent:count 0
scalar RSVPTE4.LSR5.ipv4.arp arpRequestSent:sum(packetBytes) 0
scalar RSVPTE4.LSR5.lo[0].lo rcvdPkFromHl:count 0
scalar RSVPTE4.LSR5.lo[0].lo rcvdPkFromHl:sum(packetBytes) 0
scalar RSVPTE4.LSR5.lo[0].lo passedUpPk:count 0
scalar RSVPTE4.LSR5.lo[0].lo passedUpPk:sum(packetBytes) 0
scalar RSVPTE4.LSR5.lo[0] packetDropInterfaceDown:count 0
scalar RSVPTE4.LSR5.lo[0] packetDropInterfaceDown:sum(packetBytes) 0
scalar RSVPTE4.LSR5.lo[0] packetDropNoCarrier:count 0
scalar RSVPTE4.LSR5.lo[0] packetDropNoCarrier:sum(packetBytes) 0
scalar RSVPTE4.LSR5.ppp[0].queue queueLength:last 0
scalar RSVPTE4.LSR5.ppp[0].queue queueLength:max 2
scalar RSVPTE4.LSR5.ppp[0].queue queueLength:timeavg 0.0017491153319999996
scalar RSVPTE4.LSR5.ppp[0].queue queueBitLength:last 0
scalar RSVPTE4.LSR5.ppp[0].queue queueBitLength:max 2624
scalar RSVPTE4.LSR5.ppp[0].queue queueBitLength:timeavg 1.6097193155200002
scalar RSVPTE4.LSR5.ppp[0].queue outgoingPackets:count 35
scalar RSVPTE4.LSR5.ppp[0].queue outgoingPacketLengths:sum 20832
scalar RSVPTE4.LSR5.ppp[0].queue incomingPackets:count 35
scalar RSVPTE4.LSR5.ppp[0].queue incomingPacketLengths:sum 20832
scalar RSVPTE4.LSR5.ppp[0].queue droppedPacketsQueueOverflow:count 0
scalar RSVPTE4.LSR5.ppp[0].queue droppedPacketLengthsQueueOverflow:sum 0
scalar RSVPTE4.LSR5.ppp[0].ppp transmissionState:timeavg 0.0063311111099999999
scalar RSVPTE4.LSR5.ppp[0].ppp rxPkOk:count 388
scalar RSVPTE4.LSR5.ppp[0].ppp rxPkOk:sum(packetBytes) 60906
scalar RSVPTE4.LSR5.ppp[0].ppp txPk:count 35
scalar RSVPTE4.LSR5.ppp[0].ppp txPk:sum(packetBytes) 2849
scalar RSVPTE4.LSR5.ppp[0].ppp rcvdPkFromHl:count 35
scalar RSVPTE4.LSR5.ppp[0].ppp rcvdPkFromHl:sum(packetBytes) 2604
scalar RSVPTE4.LSR5.ppp[0].ppp passedUpPk:count 388
scalar RSVPTE4.LSR5.ppp[0].ppp passedUpPk:sum(packetBytes) 58190
scalar RSVPTE4.LSR5.ppp[0].ppp packetDropIncorrectlyReceived:count 0
scalar RSVPTE4.LSR5.ppp[0].ppp packetDropIncorrectlyReceived:sum(packetBytes) 0
scalar RSVPTE4.LSR5.ppp[0].ppp packetDropInterfaceDown:count 0
scalar RSVPTE4.LSR5.ppp[0].ppp packetDropInterfaceDown:sum(packetBytes) 0
scalar RSVPTE4.LSR5.ppp[0] packetDropInterfaceDown:count 0
scalar RSVPTE4.LSR5.ppp[0] packetDropInterfaceDown:sum(packetBytes) 0
scalar RSVPTE4.LSR5.ppp[0] packetDropNoCarrier:count 0
scalar RSVPTE4.LSR5.ppp[0] packetDropNoCarrier:sum(packetBytes) 0
scalar RSVPTE4.LSR5.ppp[1].queue queueLength:last 0
scalar RSVPTE4.LSR5.ppp[1].queue queueLength:max 0
scalar RSVPTE4.LSR5.ppp[1].queue queueLength:timeavg 0
scalar RSVPTE4.LSR5.ppp[1].queue queueBitLength:last 0
scalar RSVPTE4.LSR5.ppp[1].queue queueBitLength:max 0
scalar RSVPTE4.LSR5.ppp[1].queue queueBitLength:timeavg 0
scalar RSVPTE4.LSR5.ppp[1].queue outgoingPackets:count 514
scalar RSVPTE4.LSR5.ppp[1].queue outgoingPacketLengths:sum 641472
scalar RSVPTE4.LSR5.ppp[1].queue incomingPackets:count 514
scalar RSVPTE4.LSR5.ppp[1].queue incomingPacketLengths:sum 641472
scalar RSVPTE4.LSR5.ppp[1].queue droppedPacketsQueueOverflow:count 0
scalar RSVPTE4.LSR5.ppp[1].queue droppedPacketLengthsQueueOverflow:sum 0
scalar RSVPTE4.LSR5.ppp[1].ppp transmissionState:timeavg 0.18618222219366598
scalar RSVPTE4.LSR5.ppp[1].ppp rxPkOk:count 0
scalar RSVPTE4.LSR5.ppp[1].ppp rxPkOk:sum(packetBytes) 0
scalar RSVPTE4.LSR5.ppp[1].ppp txPk:count 514
scalar RSVPTE4.LSR5.ppp[1].ppp txPk:sum(packetBytes) 83782
scalar RSVPTE4.LSR5.ppp[1].ppp rcvdPkFromHl:count 514
scalar RSVPTE4.LSR5.ppp[1].ppp rcvdPkFromHl:sum(packetBytes) 80184
scalar RSVPTE4.LSR5.ppp[1].ppp passedUpPk:count 0
scalar RSVPTE4.LSR5.ppp[1].ppp passedUpPk:sum(packetBytes) 0
scalar RSVPTE4.LSR5.ppp[1].ppp packetDropIncorrectlyReceived:count 0
scalar RSVPTE4.LSR5.ppp[1].ppp packetDropIncorrectlyReceived:sum(packetBytes) 0
scalar RSVPTE4.LSR5.ppp[1].ppp packetDropInterfaceDown:count 0
scalar RSVPTE4.LSR5.ppp[1].ppp packetDropInterfaceDown:sum(packetBytes) 0
scalar RSVPTE4.LSR5.ppp[1] packetDropInterfaceDown:count 0
scalar RSVPTE4.LSR5.ppp[1] packetDropInterfaceDown:sum(packetBytes) 0
scalar RSVPTE4.LSR5.ppp[1] packetDropNoCarrier:count 0
scalar RSVPTE4.LSR5.ppp[1] packetDropNoCarrier:sum(packetBytes) 0
scalar RSVPTE4.LSR5.ppp[2].queue queueLength:last 0
scalar RSVPTE4.LSR5.ppp[2].queue queueLength:max 0
scalar RSVPTE4.LSR5.ppp[2].queue queueLength:timeavg 0
scalar RSVPTE4.LSR5.ppp[2].queue queueBitLength:last 0
scalar RSVPTE4.LSR5.ppp[2].queue queueBitLength:max 0
scalar RSVPTE4.LSR5.ppp[2].queue queueBitLength:timeavg 0
scalar RSVPTE4.LSR5.ppp[2].queue outgoingPackets:count 0
scalar RSVPTE4.LSR5.ppp[2].queue outgoingPacketLengths:sum 0
scalar RSVPTE4.LSR5.ppp[2].queue incomingPackets:count 0
scalar RSVPTE4.LSR5.ppp[2].queue incomingPacketLengths:sum 0
scalar RSVPTE4.LSR5.ppp[2].queue droppedPacketsQueueOverflow:count 0
scalar RSVPTE4.LSR5.ppp[2].queue droppedPacketLengthsQueueOverflow:sum 0
scalar RSVPTE4.LSR5.ppp[2].ppp transmissionState:timeavg 0
scalar RSVPTE4.LSR5.ppp[2].ppp rxPkOk:count 0
scalar RSVPTE4.LSR5.ppp[2].ppp rxPkOk:sum(packetBytes) 0
scalar RSVPTE4.LSR5.ppp[2].ppp txPk:count 0
scalar RSVPTE4.LSR5.ppp[2].ppp txPk:sum(packetBytes) 0
scalar RSVPTE4.LSR5.ppp[2].ppp rcvdPkFromHl:count 0
scalar RSVPTE4.LSR5.ppp[2].ppp rcvdPkFromHl:sum(packetBytes) 0
scalar RSVPTE4.LSR5.ppp[2].ppp passedUpPk:count 0
scalar RSVPTE4.LSR5.ppp[2].ppp passedUpPk:sum(packetBytes) 0
scalar RSVPTE4.LSR5.ppp[2].ppp packetDropIncorrectlyReceived:count 0
scalar RSVPTE4.LSR5.ppp[2].ppp packetDropIncorrectlyReceived:sum(packetBytes) 0
scalar RSVPTE4.LSR5.ppp[2].ppp packetDropInterfaceDown:count 0
scalar RSVPTE4.LSR5.ppp[2].ppp packetDropInterfaceDown:sum(packetBytes) 0
scalar RSVPTE4.LSR5.ppp[2] packetDropInterfaceDown:count 0
scalar RSVPTE4.LSR5.ppp[2] packetDropInterfaceDown:sum(packetBytes) 0
scalar RSVPTE4.LSR5.ppp[2] packetDropNoCarrier:count 0
scalar RSVPTE4.LSR5.ppp[2] packetDropNoCarrier:sum(packetBytes) 0
scalar RSVPTE4.LSR5.ppp[3].queue queueLength:last 0
scalar RSVPTE4.LSR5.ppp[3].queue queueLength:max 1
scalar RSVPTE4.LSR5.ppp[3].queue queueLength:timeavg 0.0016457315028333332
scalar RSVPTE4.LSR5.ppp[3].queue queueBitLength:last 0
scalar RSVPTE4.LSR5.ppp[3].queue queueBitLength:max 1312
scalar RSVPTE4.LSR5.ppp[3].queue queueBitLength:timeavg 2.0683197316853335
scalar RSVPTE4.LSR5.ppp[3].queue outgoingPackets:count 68
scalar RSVPTE4.LSR5.ppp[3].queue outgoingPacketLengths:sum 46832
scalar RSVPTE4.LSR5.ppp[3].queue incomingPackets:count 68
scalar RSVPTE4.LSR5.ppp[3].queue incomingPacketLengths:sum 46832
scalar RSVPTE4.LSR5.ppp[3].queue droppedPacketsQueueOverflow:count 0
scalar RSVPTE4.LSR5.ppp[3].queue droppedPacketLengthsQueueOverflow:sum 0
scalar RSVPTE4.LSR5.ppp[3].ppp transmissionState:timeavg 0.014066666665000026
scalar RSVPTE4.LSR5.ppp[3].ppp rxPkOk:count 236
scalar RSVPTE4.LSR5.ppp[3].ppp rxPkOk:sum(packetBytes) 33642
scalar RSVPTE4.LSR5.ppp[3].ppp txPk:count 68
scalar RSVPTE4.LSR5.ppp[3].ppp txPk:sum(packetBytes) 6330
scalar RSVPTE4.LSR5.ppp[3].ppp rcvdPkFromHl:count 68
scalar RSVPTE4.LSR5.ppp[3].ppp rcvdPkFromHl:sum(packetBytes) 5854
scalar RSVPTE4.LSR5.ppp[3].ppp passedUpPk:count 236
scalar RSVPTE4.LSR5.ppp[3].ppp passedUpPk:sum(packetBytes) 31990
scalar RSVPTE4.LSR5.ppp[3].ppp packetDropIncorrectlyReceived:count 0
scalar RSVPTE4.LSR5.ppp[3].ppp packetDropIncorrectlyReceived:sum(packetBytes) 0
scalar RSVPTE4.LSR5.ppp[3].ppp packetDropInterfaceDown:count 0
scalar RSVPTE4.LSR5.ppp[3].ppp packetDropInterfaceDown:sum(packetBytes) 0
scalar RSVPTE4.LSR5.ppp[3] packetDropInterfaceDown:count 0
scalar RSVPTE4.LSR5.ppp[3] packetDropInterfaceDown:sum(packetBytes) 0
scalar RSVPTE4.LSR5.ppp[3] packetDropNoCarrier:count 0
scalar RSVPTE4.LSR5.ppp[3] packetDropNoCarrier:sum(packetBytes) 0
scalar RSVPTE4.LSR5.ppp[4].queue queueLength:last 0
scalar RSVPTE4.LSR5.ppp[4].queue queueLength:max 1
scalar RSVPTE4.LSR5.ppp[4].queue queueLength:timeavg 0.00052679211816666666
scalar RSVPTE4.LSR5.ppp[4].queue queueBitLength:last 0
scalar RSVPTE4.LSR5.ppp[4].queue queueBitLength:max 7072
scalar RSVPTE4.LSR5.ppp[4].queue queueBitLength:timeavg 1.8908556294346666
scalar RSVPTE4.LSR5.ppp[4].queue outgoingPackets:count 68
scalar RSVPTE4.LSR5.ppp[4].queue outgoingPacketLengths:sum 47984
scalar RSVPTE4.LSR5.ppp[4].queue incomingPackets:count 68
scalar RSVPTE4.LSR5.ppp[4].queue incomingPacketLengths:sum 47984
scalar RSVPTE4.LSR5.ppp[4].queue droppedPacketsQueueOverflow:count 0
scalar RSVPTE4.LSR5.ppp[4].queue droppedPacketLengthsQueueOverflow:sum 0
scalar RSVPTE4.LSR5.ppp[4].ppp transmissionState:timeavg 0.014386666665000028
scalar RSVPTE4.LSR5.ppp[4].ppp rxPkOk:count 51
scalar RSVPTE4.LSR5.ppp[4].ppp rxPkOk:sum(packetBytes) 3855
scalar RSVPTE4.LSR5.ppp[4].ppp txPk:count 68
scalar RSVPTE4.LSR5.ppp[4].ppp txPk:sum(packetBytes) 6474
scalar RSVPTE4.LSR5.ppp[4].ppp rcvdPkFromHl:count 68
scalar RSVPTE4.LSR5.ppp[4].ppp rcvdPkFromHl:sum(packetBytes) 5998
scalar RSVPTE4.LSR5.ppp[4].ppp passedUpPk:count 51
scalar RSVPTE4.LSR5.ppp[4].ppp passedUpPk:sum(packetBytes) 3498
scalar RSVPTE4.LSR5.ppp[4].ppp packetDropIncorrectlyReceived:count 0
scalar RSVPTE4.LSR5.ppp[4].ppp packetDropIncorrectlyReceived:sum(packetBytes) 0
scalar RSVPTE4.LSR5.ppp[4].ppp packetDropInterfaceDown:count 0
scalar RSVPTE4.LSR5.ppp[4].ppp packetDropInterfaceDown:sum(packetBytes) 0
scalar RSVPTE4.LSR5.ppp[4] packetDropInterfaceDown:count 0
scalar RSVPTE4.LSR5.ppp[4] packetDropInterfaceDown:sum(packetBytes) 0
scalar RSVPTE4.LSR5.ppp[4] packetDropNoCarrier:count 0
scalar RSVPTE4.LSR5.ppp[4] packetDropNoCarrier:sum(packetBytes) 0
scalar RSVPTE4.LSR6.ipv4.ip packetDropAddressResolutionFailed:count 0
scalar RSVPTE4.LSR6.ipv4.ip packetDropAddressResolutionFailed:sum(packetBytes) 0
scalar RSVPTE4.LSR6.ipv4.ip packetDropHopLimitReached:count 0
scalar RSVPTE4.LSR6.ipv4.ip packetDropHopLimitReached:sum(packetBytes) 0
scalar RSVPTE4.LSR6.ipv4.ip packetDropForwardingDisabled:count 0
scalar RSVPTE4.LSR6.ipv4.ip packetDropForwardingDisabled:sum(packetBytes) 0
scalar RSVPTE4.LSR6.ipv4.ip packetDropLifetimeExpired:count 0
scalar RSVPTE4.LSR6.ipv4.ip packetDropLifetimeExpired:sum(packetBytes) 0
scalar RSVPTE4.LSR6.ipv4.ip packetDropNoInterfaceFound:count 0
scalar RSVPTE4.LSR6.ipv4.ip packetDropNoInterfaceFound:sum(packetBytes) 0
scalar RSVPTE4.LSR6.ipv4.ip packetDropNoRouteFound:count 0
scalar RSVPTE4.LSR6.ipv4.ip packetDropNoRouteFound:sum(packetBytes) 0
scalar RSVPTE4.LSR6.ipv4.ip packetDropUndefined:count 0
scalar RSVPTE4.LSR6.ipv4.ip packetDropUndefined:sum(packetBytes) 0
scalar RSVPTE4.LSR6.ipv4.arp arpResolutionFailed:count 0
scalar RSVPTE4.LSR6.ipv4.arp arpResolutionCompleted:count 0
scalar RSVPTE4.LSR6.ipv4.arp arpResolutionInitiated:count 0
scalar RSVPTE4.LSR6.ipv4.arp arpReplySent:count 0
scalar RSVPTE4.LSR6.ipv4.arp arpReplySent:sum(packetBytes) 0
scalar RSVPTE4.LSR6.ipv4.arp arpRequestSent:count 0
scalar RSVPTE4.LSR6.ipv4.arp arpRequestSent:sum(packetBytes) 0
scalar RSVPTE4.LSR6.lo[0].lo rcvdPkFromHl:count 0
scalar RSVPTE4.LSR6.lo[0].lo rcvdPkFromHl:sum(packetBytes) 0
scalar RSVPTE4.LSR6.lo[0].lo passedUpPk:count 0
scalar RSVPTE4.LSR6.lo[0].lo passedUpPk:sum(packetBytes) 0
scalar RSVPTE4.LSR6.lo[0] packetDropInterfaceDown:count 0
scalar RSVPTE4.LSR6.lo[0] packetDropInterfaceDown:sum(packetBytes) 0
scalar RSVPTE4.LSR6.lo[0] packetDropNoCarrier:count 0
scalar RSVPTE4.LSR6.lo[0] packetDropNoCarrier:sum(packetBytes) 0
scalar RSVPTE4.LSR6.ppp[0].queue queueLength:last 0
scalar RSVPTE4.LSR6.ppp[0].queue queueLength:max 1
scalar RSVPTE4.LSR6.ppp[0].queue queueLength:timeavg 0.0014610565203333334
scalar RSVPTE4.LSR6.ppp[0].queue queueBitLength:last 0
scalar RSVPTE4.LSR6.ppp[0].queue queueBitLength:max 1888
scalar RSVPTE4.LSR6.ppp[0].queue queueBitLength:timeavg 1.7520831611413332
scalar RSVPTE4.LSR6.ppp[0].queue outgoingPackets:count 48
scalar RSVPTE4.LSR6.ppp[0].queue outgoingPacketLengths:sum 29808
scalar RSVPTE4.LSR6.ppp[0].queue incomingPackets:count 48
scalar RSVPTE4.LSR6.ppp[0].queue incomingPacketLengths:sum 29808
scalar RSVPTE4.LSR6.ppp[0].queue droppedPacketsQueueOverflow:count 0
scalar RSVPTE4.LSR6.ppp[0].queue droppedPacketLengthsQueueOverflow:sum 0
scalar RSVPTE4.LSR6.ppp[0].ppp transmissionState:timeavg 0.0090266666649999987
scalar RSVPTE4.LSR6.ppp[0].ppp rxPkOk:count 245
scalar RSVPTE4.LSR6.ppp[0].ppp rxPkOk:sum(packetBytes) 35181
scalar RSVPTE4.LSR6.ppp[0].ppp txPk:count 48
scalar RSVPTE4.LSR6.ppp[0].ppp txPk:sum(packetBytes) 4062
scalar RSVPTE4.LSR6.ppp[0].ppp rcvdPkFromHl:count 48
scalar RSVPTE4.LSR6.ppp[0].ppp rcvdPkFromHl:sum(packetBytes) 3726
scalar RSVPTE4.LSR6.ppp[0].ppp passedUpPk:count 245
scalar RSVPTE4.LSR6.ppp[0].ppp passedUpPk:sum(packetBytes) 33466
scalar RSVPTE4.LSR6.ppp[0].ppp packetDropIncorrectlyReceived:count 0
scalar RSVPTE4.LSR6.ppp[0].ppp packetDropIncorrectlyReceived:sum(packetBytes) 0
scalar RSVPTE4.LSR6.ppp[0].ppp packetDropInterfaceDown:count 0
scalar RSVPTE4.LSR6.ppp[0].ppp packetDropInterfaceDown:sum(packetBytes) 0
scalar RSVPTE4.LSR6.ppp[0] packetDropInterfaceDown:count 0
scalar RSVPTE4.LSR6.ppp[0] packetDropInterfaceDown:sum(packetBytes) 0
scalar RSVPTE4.LSR6.ppp[0] packetDropNoCarrier:count 0
scalar RSVPTE4.LSR6.ppp[0] packetDropNoCarrier:sum(packetBytes) 0
scalar RSVPTE4.LSR6.ppp[1].queue queueLength:last 0
scalar RSVPTE4.LSR6.ppp[1].queue queueLength:max 1
scalar RSVPTE4.LSR6.ppp[1].queue queueLength:timeavg 0.00022000000000000001
scalar RSVPTE4.LSR6.ppp[1].queue queueBitLength:last 0
scalar RSVPTE4.LSR6.ppp[1].queue queueBitLength:max 168
scalar RSVPTE4.LSR6.ppp[1].queue queueBitLength:timeavg 0.03696
scalar RSVPTE4.LSR6.ppp[1].queue outgoingPackets:count 236
scalar RSVPTE4.LSR6.ppp[1].queue outgoingPacketLengths:sum 255920
scalar RSVPTE4.LSR6.ppp[1].queue incomingPackets:count 236
scalar RSVPTE4.LSR6.ppp[1].queue incomingPacketLengths:sum 255920
scalar RSVPTE4.LSR6.ppp[1].queue droppedPacketsQueueOverflow:count 0
scalar RSVPTE4.LSR6.ppp[1].queue droppedPacketLengthsQueueOverflow:sum 0
scalar RSVPTE4.LSR6.ppp[1].ppp transmissionState:timeavg 0.074759999988500095
scalar RSVPTE4.LSR6.ppp[1].ppp rxPkOk:count 68
scalar RSVPTE4.LSR6.ppp[1].ppp rxPkOk:sum(packetBytes) 6330
scalar RSVPTE4.LSR6.ppp[1].ppp txPk:count 236
scalar RSVPTE4.LSR6.ppp[1].ppp txPk:sum(packetBytes) 33642
scalar RSVPTE4.LSR6.ppp[1].ppp rcvdPkFromHl:count 236
scalar RSVPTE4.LSR6.ppp[1].ppp rcvdPkFromHl:sum(packetBytes) 31990
scalar RSVPTE4.LSR6.ppp[1].ppp passedUpPk:count 68
scalar RSVPTE4.LSR6.ppp[1].ppp passedUpPk:sum(packetBytes) 5854
scalar RSVPTE4.LSR6.ppp[1].ppp packetDropIncorrectlyReceived:count 0
scalar RSVPTE4.LSR6.ppp[1].ppp packetDropIncorrectlyReceived:sum(packetBytes) 0
scalar RSVPTE4.LSR6.ppp[1].ppp packetDropInterfaceDown:count 0
scalar RSVPTE4.LSR6.ppp[1].ppp packetDropInterfaceDown:sum(packetBytes) 0
scalar RSVPTE4.LSR6.ppp[1] packetDropInterfaceDown:count 0
scalar RSVPTE4.LSR6.ppp[1] packetDropInterfaceDown:sum(packetBytes) 0
scalar RSVPTE4.LSR6.ppp[1] packetDropNoCarrier:count 0
scalar RSVPTE4.LSR6.ppp[1] packetDropNoCarrier:sum(packetBytes) 0
scalar RSVPTE4.LSR7.ipv4.ip packetDropAddressResolutionFailed:count 0
scalar RSVPTE4.LSR7.ipv4.ip packetDropAddressResolutionFailed:sum(packetBytes) 0
scalar RSVPTE4.LSR7.ipv4.ip packetDropHopLimitReached:count 0
scalar RSVPTE4.LSR7.ipv4.ip packetDropHopLimitReached:sum(packetBytes) 0
scalar RSVPTE4.LSR7.ipv4.ip packetDropForwardingDisabled:count 0
scalar RSVPTE4.LSR7.ipv4.ip packetDropForwardingDisabled:sum(packetBytes) 0
scalar RSVPTE4.LSR7.ipv4.ip packetDropLifetimeExpired:count 0
scalar RSVPTE4.LSR7.ipv4.ip packetDropLifetimeExpired:sum(packetBytes) 0
scalar RSVPTE4.LSR7.ipv4.ip packetDropNoInterfaceFound:count 0
scalar RSVPTE4.LSR7.ipv4.ip packetDropNoInterfaceFound:sum(packetBytes) 0
scalar RSVPTE4.LSR7.ipv4.ip packetDropNoRouteFound:count 0
scalar RSVPTE4.LSR7.ipv4.ip packetDropNoRouteFound:sum(packetBytes) 0
scalar RSVPTE4.LSR7.ipv4.ip packetDropUndefined:count 0
scalar RSVPTE4.LSR7.ipv4.ip packetDropUndefined:sum(packetBytes) 0
scalar RSVPTE4.LSR7.ipv4.arp arpResolutionFailed:count 0
scalar RSVPTE4.LSR7.ipv4.arp arpResolutionCompleted:count 0
scalar RSVPTE4.LSR7.ipv4.arp arpResolutionInitiated:count 0
scalar RSVPTE4.LSR7.ipv4.arp arpReplySent:count 0
scalar RSVPTE4.LSR7.ipv4.arp arpReplySent:sum(packetBytes) 0
scalar RSVPTE4.LSR7.ipv4.arp arpRequestSent:count 0
scalar RSVPTE4.LSR7.ipv4.arp arpRequestSent:sum(packetBytes) 0
scalar RSVPTE4.LSR7.lo[0].lo rcvdPkFromHl:count 0
scalar RSVPTE4.LSR7.lo[0].lo rcvdPkFromHl:sum(packetBytes) 0
scalar RSVPTE4.LSR7.lo[0].lo passedUpPk:count 0
scalar RSVPTE4.LSR7.lo[0].lo passedUpPk:sum(packetBytes) 0
scalar RSVPTE4.LSR7.lo[0] packetDropInterfaceDown:count 0
scalar RSVPTE4.LSR7.lo[0] packetDropInterfaceDown:sum(packetBytes) 0
scalar RSVPTE4.LSR7.lo[0] packetDropNoCarrier:count 0
scalar RSVPTE4.LSR7.lo[0] packetDropNoCarrier:sum(packetBytes) 0
scalar RSVPTE4.LSR7.ppp[0].queue queueLength:last 0
scalar RSVPTE4.LSR7.ppp[0].queue queueLength:max 1
scalar RSVPTE4.LSR7.ppp[0].queue queueLength:timeavg 0.0030391426291666666
scalar RSVPTE4.LSR7.ppp[0].queue queueBitLength:last 0
scalar RSVPTE4.LSR7.ppp[0].queue queueBitLength:max 1888
scalar RSVPTE4.LSR7.ppp[0].queue queueBitLength:timeavg 5.5514033430933338
scalar RSVPTE4.LSR7.ppp[0].queue outgoingPackets:count 56
scalar RSVPTE4.LSR7.ppp[0].queue outgoingPacketLengths:sum 40880
scalar RSVPTE4.LSR7.ppp[0].queue incomingPackets:count 56
scalar RSVPTE4.LSR7.ppp[0].queue incomingPacketLengths:sum 40880
scalar RSVPTE4.LSR7.ppp[0].queue droppedPacketsQueueOverflow:count 0
scalar RSVPTE4.LSR7.ppp[0].queue droppedPacketLengthsQueueOverflow:sum 0
scalar RSVPTE4.LSR7.ppp[0].ppp transmissionState:timeavg 0.012226666665000011
scalar RSVPTE4.LSR7.ppp[0].ppp rxPkOk:count 69
scalar RSVPTE4.LSR7.ppp[0].ppp rxPkOk:sum(packetBytes) 7221
scalar RSVPTE4.LSR7.ppp[0].ppp txPk:count 56
scalar RSVPTE4.LSR7.ppp[0].ppp txPk:sum(packetBytes) 5502
scalar RSVPTE4.LSR7.ppp[0].ppp rcvdPkFromHl:count 56
scalar RSVPTE4.LSR7.ppp[0].ppp rcvdPkFromHl:sum(packetBytes) 5110
scalar RSVPTE4.LSR7.ppp[0].ppp passedUpPk:count 69
scalar RSVPTE4.LSR7.ppp[0].ppp passedUpPk:sum(packetBytes) 6738
scalar RSVPTE4.LSR7.ppp[0].ppp packetDropIncorrectlyReceived:count 0
scalar RSVPTE4.LSR7.ppp[0].ppp packetDropIncorrectlyReceived:sum(packetBytes) 0
scalar RSVPTE4.LSR7.ppp[0].ppp packetDropInterfaceDown:count 0
scalar RSVPTE4.LSR7.ppp[0].ppp packetDropInterfaceDown:sum(packetBytes) 0
scalar RSVPTE4.LSR7.ppp[0] packetDropInterfaceDown:count 0
scalar RSVPTE4.LSR7.ppp[0] packetDropInterfaceDown:sum(packetBytes) 0
scalar RSVPTE4.LSR7.ppp[0] packetDropNoCarrier:count 0
scalar RSVPTE4.LSR7.ppp[0] packetDropNoCarrier:sum(packetBytes) 0
scalar RSVPTE4.LSR7.ppp[1].queue queueLength:last 0
scalar RSVPTE4.LSR7.ppp[1].queue queueLength:max 1
scalar RSVPTE4.LSR7.ppp[1].queue queueLength:timeavg 0.00037777777783333332
scalar RSVPTE4.LSR7.ppp[1].queue queueBitLength:last 0
scalar RSVPTE4.LSR7.ppp[1].queue queueBitLength:max 736
scalar RSVPTE4.LSR7.ppp[1].queue queueBitLength:timeavg 0.15308444448533334
scalar RSVPTE4.LSR7.ppp[1].queue outgoingPackets:count 51
scalar RSVPTE4.LSR7.ppp[1].queue outgoingPacketLengths:sum 27984
scalar RSVPTE4.LSR7.ppp[1].queue incomingPackets:count 51
scalar RSVPTE4.LSR7.ppp[1].queue incomingPacketLengths:sum 27984
scalar RSVPTE4.LSR7.ppp[1].queue droppedPacketsQueueOverflow:count 0
scalar RSVPTE4.LSR7.ppp[1].queue droppedPacketLengthsQueueOverflow:sum 0
scalar RSVPTE4.LSR7.ppp[1].ppp transmissionState:timeavg 0.0085666666650000001
scalar RSVPTE4.LSR7.ppp[1].ppp rxPkOk:count 68
scalar RSVPTE4.LSR7.ppp[1].ppp rxPkOk:sum(packetBytes) 6474
scalar RSVPTE4.LSR7.ppp[1].ppp txPk:count 51
scalar RSVPTE4.LSR7.ppp[1].ppp txPk:sum(packetBytes) 3855
scalar RSVPTE4.LSR7.ppp[1].ppp rcvdPkFromHl:count 51
scalar RSVPTE4.LSR7.ppp[1].ppp rcvdPkFromHl:sum(packetBytes) 3498
scalar RSVPTE4.LSR7.ppp[1].ppp passedUpPk:count 68
scalar RSVPTE4.LSR7.ppp[1].ppp passedUpPk:sum(packetBytes) 5998
scalar RSVPTE4.LSR7.ppp[1].ppp packetDropIncorrectlyReceived:count 0
scalar RSVPTE4.LSR7.ppp[1].ppp packetDropIncorrectlyReceived:sum(packetBytes) 0
scalar RSVPTE4.LSR7.ppp[1].ppp packetDropInterfaceDown:count 0
scalar RSVPTE4.LSR7.ppp[1].ppp packetDropInterfaceDown:sum(packetBytes) 0
scalar RSVPTE4.LSR7.ppp[1] packetDropInterfaceDown:count 0
scalar RSVPTE4.LSR7.ppp[1] packetDropInterfaceDown:sum(packetBytes) 0
scalar RSVPTE4.LSR7.ppp[1] packetDropNoCarrier:count 0
scalar RSVPTE4.LSR7.ppp[1] packetDropNoCarrier:sum(packetBytes) 0
scalar RSVPTE4.host1.lo[0].lo rcvdPkFromHl:count 0
scalar RSVPTE4.host1.lo[0].lo rcvdPkFromHl:sum(packetBytes) 0
scalar RSVPTE4.host1.lo[0].lo passedUpPk:count 0
scalar RSVPTE4.host1.lo[0].lo passedUpPk:sum(packetBytes) 0
scalar RSVPTE4.host1.lo[0] packetDropInterfaceDown:count 0
scalar RSVPTE4.host1.lo[0] packetDropInterfaceDown:sum(packetBytes) 0
scalar RSVPTE4.host1.lo[0] packetDropNoCarrier:count 0
scalar RSVPTE4.host1.lo[0] packetDropNoCarrier:sum(packetBytes) 0
scalar RSVPTE4.host1.ppp[0].queue queueLength:last 0
scalar RSVPTE4.host1.ppp[0].queue queueLength:max 0
scalar RSVPTE4.host1.ppp[0].queue queueLength:timeavg 0
scalar RSVPTE4.host1.ppp[0].queue queueBitLength:last 0
scalar RSVPTE4.host1.ppp[0].queue queueBitLength:max 0
scalar RSVPTE4.host1.ppp[0].queue queueBitLength:timeavg 0
scalar RSVPTE4.host1.ppp[0].queue outgoingPackets:count 600
scalar RSVPTE4.host1.ppp[0].queue outgoingPacketLengths:sum 748800
scalar RSVPTE4.host1.ppp[0].queue incomingPackets:count 600
scalar RSVPTE4.host1.ppp[0].queue incomingPacketLengths:sum 748800
scalar RSVPTE4.host1.ppp[0].queue droppedPacketsQueueOverflow:count 0
scalar RSVPTE4.host1.ppp[0].queue droppedPacketLengthsQueueOverflow:sum 0
scalar RSVPTE4.host1.ppp[0].ppp transmissionState:timeavg 0.21697111107783365
scalar RSVPTE4.host1.ppp[0].ppp rxPkOk:count 3
scalar RSVPTE4.host1.ppp[0].ppp rxPkOk:sum(packetBytes) 189
scalar RSVPTE4.host1.ppp[0].ppp txPk:count 600
scalar RSVPTE4.host1.ppp[0].ppp txPk:sum(packetBytes) 97800
scalar RSVPTE4.host1.ppp[0].ppp rcvdPkFromHl:count 600
scalar RSVPTE4.host1.ppp[0].ppp rcvdPkFromHl:sum(packetBytes) 93600
scalar RSVPTE4.host1.ppp[0].ppp passedUpPk:count 3
scalar RSVPTE4.host1.ppp[0].ppp passedUpPk:sum(packetBytes) 168
scalar RSVPTE4.host1.ppp[0].ppp packetDropIncorrectlyReceived:count 0
scalar RSVPTE4.host1.ppp[0].ppp packetDropIncorrectlyReceived:sum(packetBytes) 0
scalar RSVPTE4.host1.ppp[0].ppp packetDropInterfaceDown:count 0
scalar RSVPTE4.host1.ppp[0].ppp packetDropInterfaceDown:sum(packetBytes) 0
scalar RSVPTE4.host1.ppp[0] packetDropInterfaceDown:count 0
scalar RSVPTE4.host1.ppp[0] packetDropInterfaceDown:sum(packetBytes) 0
scalar RSVPTE4.host1.ppp[0] packetDropNoCarrier:count 0
scalar RSVPTE4.host1.ppp[0] packetDropNoCarrier:sum(packetBytes) 0
scalar RSVPTE4.host1.ipv4.ip packetDropAddressResolutionFailed:count 0
scalar RSVPTE4.host1.ipv4.ip packetDropAddressResolutionFailed:sum(packetBytes) 0
scalar RSVPTE4.host1.ipv4.ip packetDropHopLimitReached:count 0
scalar RSVPTE4.host1.ipv4.ip packetDropHopLimitReached:sum(packetBytes) 0
scalar RSVPTE4.host1.ipv4.ip packetDropForwardingDisabled:count 0
scalar RSVPTE4.host1.ipv4.ip packetDropForwardingDisabled:sum(packetBytes) 0
scalar RSVPTE4.host1.ipv4.ip packetDropLifetimeExpired:count 0
scalar RSVPTE4.host1.ipv4.ip packetDropLifetimeExpired:sum(packetBytes) 0
scalar RSVPTE4.host1.ipv4.ip packetDropNoInterfaceFound:count 0
scalar RSVPTE4.host1.ipv4.ip packetDropNoInterfaceFound:sum(packetBytes) 0
scalar RSVPTE4.host1.ipv4.ip packetDropNoRouteFound:count 0
scalar RSVPTE4.host1.ipv4.ip packetDropNoRouteFound:sum(packetBytes) 0
scalar RSVPTE4.host1.ipv4.ip packetDropUndefined:count 0
scalar RSVPTE4.host1.ipv4.ip packetDropUndefined:sum(packetBytes) 0
scalar RSVPTE4.host1.ipv4.arp arpResolutionFailed:count 0
scalar RSVPTE4.host1.ipv4.arp arpResolutionCompleted:count 0
scalar RSVPTE4.host1.ipv4.arp arpResolutionInitiated:count 0
scalar RSVPTE4.host1.ipv4.arp arpReplySent:count 0
scalar RSVPTE4.host1.ipv4.arp arpReplySent:sum(packetBytes) 0
scalar RSVPTE4.host1.ipv4.arp arpRequestSent:count 0
scalar RSVPTE4.host1.ipv4.arp arpRequestSent:sum(packetBytes) 0
scalar RSVPTE4.host1.udp packetReceived:count 0
scalar RSVPTE4.host1.udp packetReceived:sum(packetBytes) 0
scalar RSVPTE4.host1.udp packetSent:count 600
scalar RSVPTE4.host1.udp packetSent:sum(packetBytes) 81600
scalar RSVPTE4.host1.udp passedUpPk:count 0
scalar RSVPTE4.host1.udp droppedPkWrongPort:count 0
scalar RSVPTE4.host1.udp droppedPkBadChecksum:count 0
scalar RSVPTE4.host1.app[0] "packets sent" 600
scalar RSVPTE4.host1.app[0] "packets received" 0
scalar RSVPTE4.host1.app[0] packetReceived:count 0
scalar RSVPTE4.host1.app[0] packetReceived:sum(packetBytes) 0
scalar RSVPTE4.host1.app[0] packetSent:count 600
scalar RSVPTE4.host1.app[0] packetSent:sum(packetBytes) 76800
scalar RSVPTE4.host2.lo[0].lo rcvdPkFromHl:count 0
scalar RSVPTE4.host2.lo[0].lo rcvdPkFromHl:sum(packetBytes) 0
scalar RSVPTE4.host2.lo[0].lo passedUpPk:count 0
scalar RSVPTE4.host2.lo[0].lo passedUpPk:sum(packetBytes) 0
scalar RSVPTE4.host2.lo[0] packetDropInterfaceDown:count 0
scalar RSVPTE4.host2.lo[0] packetDropInterfaceDown:sum(packetBytes) 0
scalar RSVPTE4.host2.lo[0] packetDropNoCarrier:count 0
scalar RSVPTE4.host2.lo[0] packetDropNoCarrier:sum(packetBytes) 0
scalar RSVPTE4.host2.ppp[0].queue queueLength:last 0
scalar RSVPTE4.host2.ppp[0].queue queueLength:max 0
scalar RSVPTE4.host2.ppp[0].queue queueLength:timeavg 0
scalar RSVPTE4.host2.ppp[0].queue queueBitLength:last 0
scalar RSVPTE4.host2.ppp[0].queue queueBitLength:max 0
scalar RSVPTE4.host2.ppp[0].queue queueBitLength:timeavg 0
scalar RSVPTE4.host2.ppp[0].queue outgoingPackets:count 0
scalar RSVPTE4.host2.ppp[0].queue outgoingPacketLengths:sum 0
scalar RSVPTE4.host2.ppp[0].queue incomingPackets:count 0
scalar RSVPTE4.host2.ppp[0].queue incomingPacketLengths:sum 0
scalar RSVPTE4.host2.ppp[0].queue droppedPacketsQueueOverflow:count 0
scalar RSVPTE4.host2.ppp[0].queue droppedPacketLengthsQueueOverflow:sum 0
scalar RSVPTE4.host2.ppp[0].ppp transmissionState:timeavg 0
scalar RSVPTE4.host2.ppp[0].ppp rxPkOk:count 0
scalar RSVPTE4.host2.ppp[0].ppp rxPkOk:sum(packetBytes) 0
scalar RSVPTE4.host2.ppp[0].ppp txPk:count 0
scalar RSVPTE4.host2.ppp[0].ppp txPk:sum(packetBytes) 0
scalar RSVPTE4.host2.ppp[0].ppp rcvdPkFromHl:count 0
scalar RSVPTE4.host2.ppp[0].ppp rcvdPkFromHl:sum(packetBytes) 0
scalar RSVPTE4.host2.ppp[0].ppp passedUpPk:count 0
scalar RSVPTE4.host2.ppp[0].ppp passedUpPk:sum(packetBytes) 0
scalar RSVPTE4.host2.ppp[0].ppp packetDropIncorrectlyReceived:count 0
scalar RSVPTE4.host2.ppp[0].ppp packetDropIncorrectlyReceived:sum(packetBytes) 0
scalar RSVPTE4.host2.ppp[0].ppp packetDropInterfaceDown:count 0
scalar RSVPTE4.host2.ppp[0].ppp packetDropInterfaceDown:sum(packetBytes) 0
scalar RSVPTE4.host2.ppp[0] packetDropInterfaceDown:count 0
scalar RSVPTE4.host2.ppp[0] packetDropInterfaceDown:sum(packetBytes) 0
scalar RSVPTE4.host2.ppp[0] packetDropNoCarrier:count 0
scalar RSVPTE4.host2.ppp[0] packetDropNoCarrier:sum(packetBytes) 0
scalar RSVPTE4.host2.ipv4.ip packetDropAddressResolutionFailed:count 0
scalar RSVPTE4.host2.ipv4.ip packetDropAddressResolutionFailed:sum(packetBytes) 0
scalar RSVPTE4.host2.ipv4.ip packetDropHopLimitReached:count 0
scalar RSVPTE4.host2.ipv4.ip packetDropHopLimitReached:sum(packetBytes) 0
scalar RSVPTE4.host2.ipv4.ip packetDropForwardingDisabled:count 0
scalar RSVPTE4.host2.ipv4.ip packetDropForwardingDisabled:sum(packetBytes) 0
scalar RSVPTE4.host2.ipv4.ip packetDropLifetimeExpired:count 0
scalar RSVPTE4.host2.ipv4.ip packetDropLifetimeExpired:sum(packetBytes) 0
scalar RSVPTE4.host2.ipv4.ip packetDropNoInterfaceFound:count 0
scalar RSVPTE4.host2.ipv4.ip packetDropNoInterfaceFound:sum(packetBytes) 0
scalar RSVPTE4.host2.ipv4.ip packetDropNoRouteFound:count 0
scalar RSVPTE4.host2.ipv4.ip packetDropNoRouteFound:sum(packetBytes) 0
scalar RSVPTE4.host2.ipv4.ip packetDropUndefined:count 0
scalar RSVPTE4.host2.ipv4.ip packetDropUndefined:sum(packetBytes) 0
scalar RSVPTE4.host2.ipv4.arp arpResolutionFailed:count 0
scalar RSVPTE4.host2.ipv4.arp arpResolutionCompleted:count 0
scalar RSVPTE4.host2.ipv4.arp arpResolutionInitiated:count 0
scalar RSVPTE4.host2.ipv4.arp arpReplySent:count 0
scalar RSVPTE4.host2.ipv4.arp arpReplySent:sum(packetBytes) 0
scalar RSVPTE4.host2.ipv4.arp arpRequestSent:count 0
scalar RSVPTE4.host2.ipv4.arp arpRequestSent:sum(packetBytes) 0
scalar RSVPTE4.host2.udp packetReceived:count 0
scalar RSVPTE4.host2.udp packetReceived:sum(packetBytes) 0
scalar RSVPTE4.host2.udp packetSent:count 0
scalar RSVPTE4.host2.udp packetSent:sum(packetBytes) 0
scalar RSVPTE4.host2.udp passedUpPk:count 0
scalar RSVPTE4.host2.udp droppedPkWrongPort:count 0
scalar RSVPTE4.host2.udp droppedPkBadChecksum:count 0
scalar RSVPTE4.host3.lo[0].lo rcvdPkFromHl:count 0
scalar RSVPTE4.host3.lo[0].lo rcvdPkFromHl:sum(packetBytes) 0
scalar RSVPTE4.host3.lo[0].lo passedUpPk:count 0
scalar RSVPTE4.host3.lo[0].lo passedUpPk:sum(packetBytes) 0
scalar RSVPTE4.host3.lo[0] packetDropInterfaceDown:count 0
scalar RSVPTE4.host3.lo[0] packetDropInterfaceDown:sum(packetBytes) 0
scalar RSVPTE4.host3.lo[0] packetDropNoCarrier:count 0
scalar RSVPTE4.host3.lo[0] packetDropNoCarrier:sum(packetBytes) 0
scalar RSVPTE4.host3.ppp[0].queue queueLength:last 0
scalar RSVPTE4.host3.ppp[0].queue queueLength:max 0
scalar RSVPTE4.host3.ppp[0].queue queueLength:timeavg 0
scalar RSVPTE4.host3.ppp[0].queue queueBitLength:last 0
scalar RSVPTE4.host3.ppp[0].queue queueBitLength:max 0
scalar RSVPTE4.host3.ppp[0].queue queueBitLength:timeavg 0
scalar RSVPTE4.host3.ppp[0].queue outgoingPackets:count 0
scalar RSVPTE4.host3.ppp[0].queue outgoingPacketLengths:sum 0
scalar RSVPTE4.host3.ppp[0].queue incomingPackets:count 0
scalar RSVPTE4.host3.ppp[0].queue incomingPacketLengths:sum 0
scalar RSVPTE4.host3.ppp[0].queue droppedPacketsQueueOverflow:count 0
scalar RSVPTE4.host3.ppp[0].queue droppedPacketLengthsQueueOverflow:sum 0
scalar RSVPTE4.host3.ppp[0].ppp transmissionState:timeavg 0
scalar RSVPTE4.host3.ppp[0].ppp rxPkOk:count 513
scalar RSVPTE4.host3.ppp[0].ppp rxPkOk:sum(packetBytes) 83619
scalar RSVPTE4.host3.ppp[0].ppp txPk:count 0
scalar RSVPTE4.host3.ppp[0].ppp txPk:sum(packetBytes) 0
scalar RSVPTE4.host3.ppp[0].ppp rcvdPkFromHl:count 0
scalar RSVPTE4.host3.ppp[0].ppp rcvdPkFromHl:sum(packetBytes) 0
scalar RSVPTE4.host3.ppp[0].ppp passedUpPk:count 513
scalar RSVPTE4.host3.ppp[0].ppp passedUpPk:sum(packetBytes) 80028
scalar RSVPTE4.host3.ppp[0].ppp packetDropIncorrectlyReceived:count 0
scalar RSVPTE4.host3.ppp[0].ppp packetDropIncorrectlyReceived:sum(packetBytes) 0
scalar RSVPTE4.host3.ppp[0].ppp packetDropInterfaceDown:count 0
scalar RSVPTE4.host3.ppp[0].ppp packetDropInterfaceDown:sum(packetBytes) 0
scalar RSVPTE4.host3.ppp[0] packetDropInterfaceDown:count 0
scalar RSVPTE4.host3.ppp[0] packetDropInterfaceDown:sum(packetBytes) 0
scalar RSVPTE4.host3.ppp[0] packetDropNoCarrier:count 0
scalar RSVPTE4.host3.ppp[0] packetDropNoCarrier:sum(packetBytes) 0
scalar RSVPTE4.host3.ipv4.ip packetDropAddressResolutionFailed:count 0
scalar RSVPTE4.host3.ipv4.ip packetDropAddressResolutionFailed:sum(packetBytes) 0
scalar RSVPTE4.host3.ipv4.ip packetDropHopLimitReached:count 0
scalar RSVPTE4.host3.ipv4.ip packetDropHopLimitReached:sum(packetBytes) 0
scalar RSVPTE4.host3.ipv4.ip packetDropForwardingDisabled:count 0
scalar RSVPTE4.host3.ipv4.ip packetDropForwardingDisabled:sum(packetBytes) 0
scalar RSVPTE4.host3.ipv4.ip packetDropLifetimeExpired:count 0
scalar RSVPTE4.host3.ipv4.ip packetDropLifetimeExpired:sum(packetBytes) 0
scalar RSVPTE4.host3.ipv4.ip packetDropNoInterfaceFound:count 0
scalar RSVPTE4.host3.ipv4.ip packetDropNoInterfaceFound:sum(packetBytes) 0
scalar RSVPTE4.host3.ipv4.ip packetDropNoRouteFound:count 0
scalar RSVPTE4.host3.ipv4.ip packetDropNoRouteFound:sum(packetBytes) 0
scalar RSVPTE4.host3.ipv4.ip packetDropUndefined:count 0
scalar RSVPTE4.host3.ipv4.ip packetDropUndefined:sum(packetBytes) 0
scalar RSVPTE4.host3.ipv4.arp arpResolutionFailed:count 0
scalar RSVPTE4.host3.ipv4.arp arpResolutionCompleted:count 0
scalar RSVPTE4.host3.ipv4.arp arpResolutionInitiated:count 0
scalar RSVPTE4.host3.ipv4.arp arpReplySent:count 0
scalar RSVPTE4.host3.ipv4.arp arpReplySent:sum(packetBytes) 0
scalar RSVPTE4.host3.ipv4.arp arpRequestSent:count 0
scalar RSVPTE4.host3.ipv4.arp arpRequestSent:sum(packetBytes) 0
scalar RSVPTE4.host3.udp packetReceived:count 513
scalar RSVPTE4.host3.udp packetReceived:sum(packetBytes) 69768
scalar RSVPTE4.host3.udp packetSent:count 0
scalar RSVPTE4.host3.udp packetSent:sum(packetBytes) 0
scalar RSVPTE4.host3.udp passedUpPk:count 513
scalar RSVPTE4.host3.udp droppedPkWrongPort:count 0
scalar RSVPTE4.host3.udp droppedPkBadChecksum:count 0
scalar RSVPTE4.host3.app[0] packetReceived:count 513
scalar RSVPTE4.host3.app[0] packetReceived:sum(packetBytes) 65664
scalar RSVPTE4.host4.lo[0].lo rcvdPkFromHl:count 0
scalar RSVPTE4.host4.lo[0].lo rcvdPkFromHl:sum(packetBytes) 0
scalar RSVPTE4.host4.lo[0].lo passedUpPk:count 0
scalar RSVPTE4.host4.lo[0].lo passedUpPk:sum(packetBytes) 0
scalar RSVPTE4.host4.lo[0] packetDropInterfaceDown:count 0
scalar RSVPTE4.host4.lo[0] packetDropInterfaceDown:sum(packetBytes) 0
scalar RSVPTE4.host4.lo[0] packetDropNoCarrier:count 0
scalar RSVPTE4.host4.lo[0] packetDropNoCarrier:sum(packetBytes) 0
scalar RSVPTE4.host4.ppp[0].queue queueLength:last 0
scalar RSVPTE4.host4.ppp[0].queue queueLength:max 0
scalar RSVPTE4.host4.ppp[0].queue queueLength:timeavg 0
scalar RSVPTE4.host4.ppp[0].queue queueBitLength:last 0
scalar RSVPTE4.host4.ppp[0].queue queueBitLength:max 0
scalar RSVPTE4.host4.ppp[0].queue queueBitLength:timeavg 0
scalar RSVPTE4.host4.ppp[0].queue outgoingPackets:count 0
scalar RSVPTE4.host4.ppp[0].queue outgoingPacketLengths:sum 0
scalar RSVPTE4.host4.ppp[0].queue incomingPackets:count 0
scalar RSVPTE4.host4.ppp[0].queue incomingPacketLengths:sum 0
scalar RSVPTE4.host4.ppp[0].queue droppedPacketsQueueOverflow:count 0
scalar RSVPTE4.host4.ppp[0].queue droppedPacketLengthsQueueOverflow:sum 0
scalar RSVPTE4.host4.ppp[0].ppp transmissionState:timeavg 0
scalar RSVPTE4.host4.ppp[0].ppp rxPkOk:count 0
scalar RSVPTE4.host4.ppp[0].ppp rxPkOk:sum(packetBytes) 0
scalar RSVPTE4.host4.ppp[0].ppp txPk:count 0
scalar RSVPTE4.host4.ppp[0].ppp txPk:sum(packetBytes) 0
scalar RSVPTE4.host4.ppp[0].ppp rcvdPkFromHl:count 0
scalar RSVPTE4.host4.ppp[0].ppp rcvdPkFromHl:sum(packetBytes) 0
scalar RSVPTE4.host4.ppp[0].ppp passedUpPk:count 0
scalar RSVPTE4.host4.ppp[0].ppp passedUpPk:sum(packetBytes) 0
scalar RSVPTE4.host4.ppp[0].ppp packetDropIncorrectlyReceived:count 0
scalar RSVPTE4.host4.ppp[0].ppp packetDropIncorrectlyReceived:sum(packetBytes) 0
scalar RSVPTE4.host4.ppp[0].ppp packetDropInterfaceDown:count 0
scalar RSVPTE4.host4.ppp[0].ppp packetDropInterfaceDown:sum(packetBytes) 0
scalar RSVPTE4.host4.ppp[0] packetDropInterfaceDown:count 0
scalar RSVPTE4.host4.ppp[0] packetDropInterfaceDown:sum(packetBytes) 0
scalar RSVPTE4.host4.ppp[0] packetDropNoCarrier:count 0
scalar RSVPTE4.host4.ppp[0] packetDropNoCarrier:sum(packetBytes) 0
scalar RSVPTE4.host4.ipv4.ip packetDropAddressResolutionFailed:count 0
scalar RSVPTE4.host4.ipv4.ip packetDropAddressResolutionFailed:sum(packetBytes) 0
scalar RSVPTE4.host4.ipv4.ip packetDropHopLimitReached:count 0
scalar RSVPTE4.host4.ipv4.ip packetDropHopLimitReached:sum(packetBytes) 0
scalar RSVPTE4.host4.ipv4.ip packetDropForwardingDisabled:count 0
scalar RSVPTE4.host4.ipv4.ip packetDropForwardingDisabled:sum(packetBytes) 0
scalar RSVPTE4.host4.ipv4.ip packetDropLifetimeExpired:count 0
scalar RSVPTE4.host4.ipv4.ip packetDropLifetimeExpired:sum(packetBytes) 0
scalar RSVPTE4.host4.ipv4.ip packetDropNoInterfaceFound:count 0
scalar RSVPTE4.host4.ipv4.ip packetDropNoInterfaceFound:sum(packetBytes) 0
scalar RSVPTE4.host4.ipv4.ip packetDropNoRouteFound:count 0
scalar RSVPTE4.host4.ipv4.ip packetDropNoRouteFound:sum(packetBytes) 0
scalar RSVPTE4.host4.ipv4.ip packetDropUndefined:count 0
scalar RSVPTE4.host4.ipv4.ip packetDropUndefined:sum(packetBytes) 0
scalar RSVPTE4.host4.ipv4.arp arpResolutionFailed:count 0
scalar RSVPTE4.host4.ipv4.arp arpResolutionCompleted:count 0
scalar RSVPTE4.host4.ipv4.arp arpResolutionInitiated:count 0
scalar RSVPTE4.host4.ipv4.arp arpReplySent:count 0
scalar RSVPTE4.host4.ipv4.arp arpReplySent:sum(packetBytes) 0
scalar RSVPTE4.host4.ipv4.arp arpRequestSent:count 0
scalar RSVPTE4.host4.ipv4.arp arpRequestSent:sum(packetBytes) 0
scalar RSVPTE4.host4.udp packetReceived:count 0
scalar RSVPTE4.host4.udp packetReceived:sum(packetBytes) 0
scalar RSVPTE4.host4.udp packetSent:count 0
scalar RSVPTE4.host4.udp packetSent:sum(packetBytes) 0
scalar RSVPTE4.host4.udp passedUpPk:count 0
scalar RSVPTE4.host4.udp droppedPkWrongPort:count 0
scalar RSVPTE4.host4.udp droppedPkBadChecksum:count 0
scalar RSVPTE4.host5.lo[0].lo rcvdPkFromHl:count 0
scalar RSVPTE4.host5.lo[0].lo rcvdPkFromHl:sum(packetBytes) 0
scalar RSVPTE4.host5.lo[0].lo passedUpPk:count 0
scalar RSVPTE4.host5.lo[0].lo passedUpPk:sum(packetBytes) 0
scalar RSVPTE4.host5.lo[0] packetDropInterfaceDown:count 0
scalar RSVPTE4.host5.lo[0] packetDropInterfaceDown:sum(packetBytes) 0
scalar RSVPTE4.host5.lo[0] packetDropNoCarrier:count 0
scalar RSVPTE4.host5.lo[0] packetDropNoCarrier:sum(packetBytes) 0
scalar RSVPTE4.host5.ppp[0].queue queueLength:last 0
scalar RSVPTE4.host5.ppp[0].queue queueLength:max 0
scalar RSVPTE4.host5.ppp[0].queue queueLength:timeavg 0
scalar RSVPTE4.host5.ppp[0].queue queueBitLength:last 0
scalar RSVPTE4.host5.ppp[0].queue queueBitLength:max 0
scalar RSVPTE4.host5.ppp[0].queue queueBitLength:timeavg 0
scalar RSVPTE4.host5.ppp[0].queue outgoingPackets:count 0
scalar RSVPTE4.host5.ppp[0].queue outgoingPacketLengths:sum 0
scalar RSVPTE4.host5.ppp[0].queue incomingPackets:count 0
scalar RSVPTE4.host5.ppp[0].queue incomingPacketLengths:sum 0
scalar RSVPTE4.host5.ppp[0].queue droppedPacketsQueueOverflow:count 0
scalar RSVPTE4.host5.ppp[0].queue droppedPacketLengthsQueueOverflow:sum 0
scalar RSVPTE4.host5.ppp[0].ppp transmissionState:timeavg 0
scalar RSVPTE4.host5.ppp[0].ppp rxPkOk:count 0
scalar RSVPTE4.host5.ppp[0].ppp rxPkOk:sum(packetBytes) 0
scalar RSVPTE4.host5.ppp[0].ppp txPk:count 0
scalar RSVPTE4.host5.ppp[0].ppp txPk:sum(packetBytes) 0
scalar RSVPTE4.host5.ppp[0].ppp rcvdPkFromHl:count 0
scalar RSVPTE4.host5.ppp[0].ppp rcvdPkFromHl:sum(packetBytes) 0
scalar RSVPTE4.host5.ppp[0].ppp passedUpPk:count 0
scalar RSVPTE4.host5.ppp[0].ppp passedUpPk:sum(packetBytes) 0
scalar RSVPTE4.host5.ppp[0].ppp packetDropIncorrectlyReceived:count 0
scalar RSVPTE4.host5.ppp[0].ppp packetDropIncorrectlyReceived:sum(packetBytes) 0
scalar RSVPTE4.host5.ppp[0].ppp packetDropInterfaceDown:count 0
scalar RSVPTE4.host5.ppp[0].ppp packetDropInterfaceDown:sum(packetBytes) 0
scalar RSVPTE4.host5.ppp[0] packetDropInterfaceDown:count 0
scalar RSVPTE4.host5.ppp[0] packetDropInterfaceDown:sum(packetBytes) 0
scalar RSVPTE4.host5.ppp[0] packetDropNoCarrier:count 0
scalar RSVPTE4.host5.ppp[0] packetDropNoCarrier:sum(packetBytes) 0
scalar RSVPTE4.host5.ipv4.ip packetDropAddressResolutionFailed:count 0
scalar RSVPTE4.host5.ipv4.ip packetDropAddressResolutionFailed:sum(packetBytes) 0
scalar RSVPTE4.host5.ipv4.ip packetDropHopLimitReached:count 0
scalar RSVPTE4.host5.ipv4.ip packetDropHopLimitReached:sum(packetBytes) 0
scalar RSVPTE4.host5.ipv4.ip packetDropForwardingDisabled:count 0
scalar RSVPTE4.host5.ipv4.ip packetDropForwardingDisabled:sum(packetBytes) 0
scalar RSVPTE4.host5.ipv4.ip packetDropLifetimeExpired:count 0
scalar RSVPTE4.host5.ipv4.ip packetDropLifetimeExpired:sum(packetBytes) 0
scalar RSVPTE4.host5.ipv4.ip packetDropNoInterfaceFound:count 0
scalar RSVPTE4.host5.ipv4.ip packetDropNoInterfaceFound:sum(packetBytes) 0
scalar RSVPTE4.host5.ipv4.ip packetDropNoRouteFound:count 0
scalar RSVPTE4.host5.ipv4.ip packetDropNoRouteFound:sum(packetBytes) 0
scalar RSVPTE4.host5.ipv4.ip packetDropUndefined:count 0
scalar RSVPTE4.host5.ipv4.ip packetDropUndefined:sum(packetBytes) 0
scalar RSVPTE4.host5.ipv4.arp arpResolutionFailed:count 0
scalar RSVPTE4.host5.ipv4.arp arpResolutionCompleted:count 0
scalar RSVPTE4.host5.ipv4.arp arpResolutionInitiated:count 0
scalar RSVPTE4.host5.ipv4.arp arpReplySent:count 0
scalar RSVPTE4.host5.ipv4.arp arpReplySent:sum(packetBytes) 0
scalar RSVPTE4.host5.ipv4.arp arpRequestSent:count 0
scalar RSVPTE4.host5.ipv4.arp arpRequestSent:sum(packetBytes) 0
scalar RSVPTE4.host5.udp packetReceived:count 0
scalar RSVPTE4.host5.udp packetReceived:sum(packetBytes) 0
scalar RSVPTE4.host5.udp packetSent:count 0
scalar RSVPTE4.host5.udp packetSent:sum(packetBytes) 0
scalar RSVPTE4.host5.udp passedUpPk:count 0
scalar RSVPTE4.host5.udp droppedPkWrongPort:count 0
scalar RSVPTE4.host5.udp droppedPkBadChecksum:count 0
scalar RSVPTE4.host1.app[0] rcvdPkLifetime:stats:count 0
scalar RSVPTE4.host1.app[0] rcvdPkLifetime:stats:sumweights 0
scalar RSVPTE4.host1.app[0] rcvdPkLifetime:stats:mean -nan
scalar RSVPTE4.host1.app[0] rcvdPkLifetime:stats:stddev nan
scalar RSVPTE4.host1.app[0] rcvdPkLifetime:stats:min nan
scalar RSVPTE4.host1.app[0] rcvdPkLifetime:stats:max nan
scalar RSVPTE4.host1.app[0] rcvdPkLifetime:stats:numbins 0
scalar RSVPTE4.LSR1.ppp[0].queue queueingTime:histogram:count 660
scalar RSVPTE4.LSR1.ppp[0].queue queueingTime:histogram:sumweights 660
scalar RSVPTE4.LSR1.ppp[0].queue queueingTime:histogram:mean 3.2591026718181819e-05
scalar RSVPTE4.LSR1.ppp[0].queue queueingTime:histogram:stddev 0.000319577657743887
scalar RSVPTE4.LSR1.ppp[0].queue queueingTime:histogram:min 0
scalar RSVPTE4.LSR1.ppp[0].queue queueingTime:histogram:max 0.0062772970749999995
scalar RSVPTE4.LSR1.ppp[0].queue queueingTime:histogram:numbins 79
scalar RSVPTE4.LSR1.ppp[0].queue queueingTime:histogram:rangemin 0
scalar RSVPTE4.LSR1.ppp[0].queue queueingTime:histogram:rangemax 0.0079000000000000008
scalar RSVPTE4.LSR1.ppp[0].queue queueingTime:histogram:underflows 0
scalar RSVPTE4.LSR1.ppp[0].queue queueingTime:histogram:overflows 0
scalar RSVPTE4.LSR1.ppp[0].queue outgoingPacketLengths:histogram:count 660
scalar RSVPTE4.LSR1.ppp[0].queue outgoingPacketLengths:histogram:sumweights 660
scalar RSVPTE4.LSR1.ppp[0].queue outgoingPacketLengths:histogram:mean 1205.1151515151514
scalar RSVPTE4.LSR1.ppp[0].queue outgoingPacketLengths:histogram:stddev 378.9911279115081
scalar RSVPTE4.LSR1.ppp[0].queue outgoingPacketLengths:histogram:min 168
scalar RSVPTE4.LSR1.ppp[0].queue outgoingPacketLengths:histogram:max 8224
scalar RSVPTE4.LSR1.ppp[0].queue outgoingPacketLengths:histogram:numbins 52
scalar RSVPTE4.LSR1.ppp[0].queue outgoingPacketLengths:histogram:rangemin 0
scalar RSVPTE4.LSR1.ppp[0].queue outgoingPacketLengths:histogram:rangemax 10400
scalar RSVPTE4.LSR1.ppp[0].queue outgoingPacketLengths:histogram:underflows 0
scalar RSVPTE4.LSR1.ppp[0].queue outgoingPacketLengths:histogram:overflows 0
scalar RSVPTE4.LSR1.ppp[0].queue flowQueueingTime:histogram:count 0
scalar RSVPTE4.LSR1.ppp[0].queue flowQueueingTime:histogram:sumweights 0
scalar RSVPTE4.LSR1.ppp[0].queue flowQueueingTime:histogram:mean -nan
scalar RSVPTE4.LSR1.ppp[0].queue flowQueueingTime:histogram:stddev nan
scalar RSVPTE4.LSR1.ppp[0].queue flowQueueingTime:histogram:min nan
scalar RSVPTE4.LSR1.ppp[0].queue flowQueueingTime:histogram:max nan
scalar RSVPTE4.LSR1.ppp[0].queue flowQueueingTime:histogram:numbins 1
scalar RSVPTE4.LSR1.ppp[0].queue flowQueueingTime:histogram:rangemin 0
scalar RSVPTE4.LSR1.ppp[0].queue flowQueueingTime:histogram:rangemax 1
scalar RSVPTE4.LSR1.ppp[0].queue flowQueueingTime:histogram:underflows 0
scalar RSVPTE4.LSR1.ppp[0].queue flowQueueingTime:histogram:overflows 0
scalar RSVPTE4.LSR1.ppp[0].queue incomingPacketLengths:histogram:count 660
scalar RSVPTE4.LSR1.ppp[0].queue incomingPacketLengths:histogram:sumweights 660
scalar RSVPTE4.LSR1.ppp[0].queue incomingPacketLengths:histogram:mean 1205.1151515151514
scalar RSVPTE4.LSR1.ppp[0].queue incomingPacketLengths:histogram:stddev 378.9911279115081
scalar RSVPTE4.LSR1.ppp[0].queue incomingPacketLengths:histogram:min 168
[...]
scalar RSVPTE4.host5.ppp[0].queue outgoingPacketLengths:vector:max -inf
scalar RSVPTE4.host5.ppp[0].queue outgoingPacketLengths:vector:starttime nan
scalar RSVPTE4.host5.ppp[0].queue outgoingPacketLengths:vector:endtime nan
scalar RSVPTE4.host5.ppp[0].queue outgoingDataRate:vector:count 60
scalar RSVPTE4.host5.ppp[0].queue outgoingDataRate:vector:sum 0
scalar RSVPTE4.host5.ppp[0].queue outgoingDataRate:vector:sumweights 60
scalar RSVPTE4.host5.ppp[0].queue outgoingDataRate:vector:mean 0
scalar RSVPTE4.host5.ppp[0].queue outgoingDataRate:vector:stddev 0
scalar RSVPTE4.host5.ppp[0].queue outgoingDataRate:vector:min 0
scalar RSVPTE4.host5.ppp[0].queue outgoingDataRate:vector:max 0
scalar RSVPTE4.host5.ppp[0].queue outgoingDataRate:vector:starttime 0.10000000000000001
scalar RSVPTE4.host5.ppp[0].queue outgoingDataRate:vector:endtime 6
scalar RSVPTE4.host5.ppp[0].queue droppedPacketLengthsQueueOverflow:vector:count 0
scalar RSVPTE4.host5.ppp[0].queue droppedPacketLengthsQueueOverflow:vector:sum 0
scalar RSVPTE4.host5.ppp[0].queue droppedPacketLengthsQueueOverflow:vector:sumweights 0
scalar RSVPTE4.host5.ppp[0].queue droppedPacketLengthsQueueOverflow:vector:mean -nan
scalar RSVPTE4.host5.ppp[0].queue droppedPacketLengthsQueueOverflow:vector:stddev nan
scalar RSVPTE4.host5.ppp[0].queue droppedPacketLengthsQueueOverflow:vector:min inf
scalar RSVPTE4.host5.ppp[0].queue droppedPacketLengthsQueueOverflow:vector:max -inf
scalar RSVPTE4.host5.ppp[0].queue droppedPacketLengthsQueueOverflow:vector:starttime nan
scalar RSVPTE4.host5.ppp[0].queue droppedPacketLengthsQueueOverflow:vector:endtime nan
scalar RSVPTE4.host5.ppp[0].queue flowQueueingTime:vector:count 0
scalar RSVPTE4.host5.ppp[0].queue flowQueueingTime:vector:sum 0
scalar RSVPTE4.host5.ppp[0].queue flowQueueingTime:vector:sumweights 0
scalar RSVPTE4.host5.ppp[0].queue flowQueueingTime:vector:mean -nan
scalar RSVPTE4.host5.ppp[0].queue flowQueueingTime:vector:stddev nan
scalar RSVPTE4.host5.ppp[0].queue flowQueueingTime:vector:min inf
scalar RSVPTE4.host5.ppp[0].queue flowQueueingTime:vector:max -inf
scalar RSVPTE4.host5.ppp[0].queue flowQueueingTime:vector:starttime nan
scalar RSVPTE4.host5.ppp[0].queue flowQueueingTime:vector:endtime nan
scalar RSVPTE4.host5.ppp[0].queue flowIncomingDataRate:vector:count 60
scalar RSVPTE4.host5.ppp[0].queue flowIncomingDataRate:vector:sum 0
scalar RSVPTE4.host5.ppp[0].queue flowIncomingDataRate:vector:sumweights 60
scalar RSVPTE4.host5.ppp[0].queue flowIncomingDataRate:vector:mean 0
scalar RSVPTE4.host5.ppp[0].queue flowIncomingDataRate:vector:stddev 0
scalar RSVPTE4.host5.ppp[0].queue flowIncomingDataRate:vector:min 0
scalar RSVPTE4.host5.ppp[0].queue flowIncomingDataRate:vector:max 0
scalar RSVPTE4.host5.ppp[0].queue flowIncomingDataRate:vector:starttime 0.10000000000000001
scalar RSVPTE4.host5.ppp[0].queue flowIncomingDataRate:vector:endtime 6
scalar RSVPTE4.host5.ppp[0].queue flowOutgoingDataRate:vector:count 60
scalar RSVPTE4.host5.ppp[0].queue flowOutgoingDataRate:vector:sum 0
scalar RSVPTE4.host5.ppp[0].queue flowOutgoingDataRate:vector:sumweights 60
scalar RSVPTE4.host5.ppp[0].queue flowOutgoingDataRate:vector:mean 0
scalar RSVPTE4.host5.ppp[0].queue flowOutgoingDataRate:vector:stddev 0
scalar RSVPTE4.host5.ppp[0].queue flowOutgoingDataRate:vector:min 0
scalar RSVPTE4.host5.ppp[0].queue flowOutgoingDataRate:vector:max 0
scalar RSVPTE4.host5.ppp[0].queue flowOutgoingDataRate:vector:starttime 0.10000000000000001
scalar RSVPTE4.host5.ppp[0].queue flowOutgoingDataRate:vector:endtime 6
scalar RSVPTE4.host5.ppp[0].ppp transmissionState:vector:count 1
scalar RSVPTE4.host5.ppp[0].ppp transmissionState:vector:sum 0
scalar RSVPTE4.host5.ppp[0].ppp transmissionState:vector:sumweights 1
scalar RSVPTE4.host5.ppp[0].ppp transmissionState:vector:mean 0
scalar RSVPTE4.host5.ppp[0].ppp transmissionState:vector:stddev nan
scalar RSVPTE4.host5.ppp[0].ppp transmissionState:vector:min 0
scalar RSVPTE4.host5.ppp[0].ppp transmissionState:vector:max 0
scalar RSVPTE4.host5.ppp[0].ppp transmissionState:vector:starttime 0
scalar RSVPTE4.host5.ppp[0].ppp transmissionState:vector:endtime 0
scalar RSVPTE4.host5.ppp[0].ppp txPk:vector(packetBytes):count 0
scalar RSVPTE4.host5.ppp[0].ppp txPk:vector(packetBytes):sum 0
scalar RSVPTE4.host5.ppp[0].ppp txPk:vector(packetBytes):sumweights 0
scalar RSVPTE4.host5.ppp[0].ppp txPk:vector(packetBytes):mean -nan
scalar RSVPTE4.host5.ppp[0].ppp txPk:vector(packetBytes):stddev nan
scalar RSVPTE4.host5.ppp[0].ppp txPk:vector(packetBytes):min inf
scalar RSVPTE4.host5.ppp[0].ppp txPk:vector(packetBytes):max -inf
scalar RSVPTE4.host5.ppp[0].ppp txPk:vector(packetBytes):starttime nan
scalar RSVPTE4.host5.ppp[0].ppp txPk:vector(packetBytes):endtime nan
scalar RSVPTE4.host5.ppp[0].ppp rxPkOk:vector(packetBytes):count 0
scalar RSVPTE4.host5.ppp[0].ppp rxPkOk:vector(packetBytes):sum 0
scalar RSVPTE4.host5.ppp[0].ppp rxPkOk:vector(packetBytes):sumweights 0
scalar RSVPTE4.host5.ppp[0].ppp rxPkOk:vector(packetBytes):mean -nan
scalar RSVPTE4.host5.ppp[0].ppp rxPkOk:vector(packetBytes):stddev nan
scalar RSVPTE4.host5.ppp[0].ppp rxPkOk:vector(packetBytes):min inf
scalar RSVPTE4.host5.ppp[0].ppp rxPkOk:vector(packetBytes):max -inf
scalar RSVPTE4.host5.ppp[0].ppp rxPkOk:vector(packetBytes):starttime nan
scalar RSVPTE4.host5.ppp[0].ppp rxPkOk:vector(packetBytes):endtime nan
scalar RSVPTE4.host5.ppp[0].ppp packetDropIncorrectlyReceived:vector(packetBytes):count 0
scalar RSVPTE4.host5.ppp[0].ppp packetDropIncorrectlyReceived:vector(packetBytes):sum 0
scalar RSVPTE4.host5.ppp[0].ppp packetDropIncorrectlyReceived:vector(packetBytes):sumweights 0
scalar RSVPTE4.host5.ppp[0].ppp packetDropIncorrectlyReceived:vector(packetBytes):mean -nan
scalar RSVPTE4.host5.ppp[0].ppp packetDropIncorrectlyReceived:vector(packetBytes):stddev nan
scalar RSVPTE4.host5.ppp[0].ppp packetDropIncorrectlyReceived:vector(packetBytes):min inf
scalar RSVPTE4.host5.ppp[0].ppp packetDropIncorrectlyReceived:vector(packetBytes):max -inf
scalar RSVPTE4.host5.ppp[0].ppp packetDropIncorrectlyReceived:vector(packetBytes):starttime nan
scalar RSVPTE4.host5.ppp[0].ppp packetDropIncorrectlyReceived:vector(packetBytes):endtime nan
scalar RSVPTE4.host5.ppp[0].ppp packetDropInterfaceDown:vector(packetBytes):count 0
scalar RSVPTE4.host5.ppp[0].ppp packetDropInterfaceDown:vector(packetBytes):sum 0
scalar RSVPTE4.host5.ppp[0].ppp packetDropInterfaceDown:vector(packetBytes):sumweights 0
scalar RSVPTE4.host5.ppp[0].ppp packetDropInterfaceDown:vector(packetBytes):mean -nan
scalar RSVPTE4.host5.ppp[0].ppp packetDropInterfaceDown:vector(packetBytes):stddev nan
scalar RSVPTE4.host5.ppp[0].ppp packetDropInterfaceDown:vector(packetBytes):min inf
scalar RSVPTE4.host5.ppp[0].ppp packetDropInterfaceDown:vector(packetBytes):max -inf
scalar RSVPTE4.host5.ppp[0].ppp packetDropInterfaceDown:vector(packetBytes):starttime nan
scalar RSVPTE4.host5.ppp[0].ppp packetDropInterfaceDown:vector(packetBytes):endtime nan
scalar RSVPTE4.host5.ppp[0].ppp rcvdPkFromHl:vector(packetBytes):count 0
scalar RSVPTE4.host5.ppp[0].ppp rcvdPkFromHl:vector(packetBytes):sum 0
scalar RSVPTE4.host5.ppp[0].ppp rcvdPkFromHl:vector(packetBytes):sumweights 0
scalar RSVPTE4.host5.ppp[0].ppp rcvdPkFromHl:vector(packetBytes):mean -nan
scalar RSVPTE4.host5.ppp[0].ppp rcvdPkFromHl:vector(packetBytes):stddev nan
scalar RSVPTE4.host5.ppp[0].ppp rcvdPkFromHl:vector(packetBytes):min inf
scalar RSVPTE4.host5.ppp[0].ppp rcvdPkFromHl:vector(packetBytes):max -inf
scalar RSVPTE4.host5.ppp[0].ppp rcvdPkFromHl:vector(packetBytes):starttime nan
scalar RSVPTE4.host5.ppp[0].ppp rcvdPkFromHl:vector(packetBytes):endtime nan
scalar RSVPTE4.host5.ppp[0].ppp passedUpPk:vector(packetBytes):count 0
scalar RSVPTE4.host5.ppp[0].ppp passedUpPk:vector(packetBytes):sum 0
scalar RSVPTE4.host5.ppp[0].ppp passedUpPk:vector(packetBytes):sumweights 0
scalar RSVPTE4.host5.ppp[0].ppp passedUpPk:vector(packetBytes):mean -nan
scalar RSVPTE4.host5.ppp[0].ppp passedUpPk:vector(packetBytes):stddev nan
scalar RSVPTE4.host5.ppp[0].ppp passedUpPk:vector(packetBytes):min inf
scalar RSVPTE4.host5.ppp[0].ppp passedUpPk:vector(packetBytes):max -inf
scalar RSVPTE4.host5.ppp[0].ppp passedUpPk:vector(packetBytes):starttime nan
scalar RSVPTE4.host5.ppp[0].ppp passedUpPk:vector(packetBytes):endtime nan
scalar RSVPTE4.host5.ppp[0] packetDropInterfaceDown:vector(packetBytes):count 0
scalar RSVPTE4.host5.ppp[0] packetDropInterfaceDown:vector(packetBytes):sum 0
scalar RSVPTE4.host5.ppp[0] packetDropInterfaceDown:vector(packetBytes):sumweights 0
scalar RSVPTE4.host5.ppp[0] packetDropInterfaceDown:vector(packetBytes):mean -nan
scalar RSVPTE4.host5.ppp[0] packetDropInterfaceDown:vector(packetBytes):stddev nan
scalar RSVPTE4.host5.ppp[0] packetDropInterfaceDown:vector(packetBytes):min inf
scalar RSVPTE4.host5.ppp[0] packetDropInterfaceDown:vector(packetBytes):max -inf
scalar RSVPTE4.host5.ppp[0] packetDropInterfaceDown:vector(packetBytes):starttime nan
scalar RSVPTE4.host5.ppp[0] packetDropInterfaceDown:vector(packetBytes):endtime nan
scalar RSVPTE4.host5.ppp[0] packetDropNoCarrier:vector(packetBytes):count 0
scalar RSVPTE4.host5.ppp[0] packetDropNoCarrier:vector(packetBytes):sum 0
scalar RSVPTE4.host5.ppp[0] packetDropNoCarrier:vector(packetBytes):sumweights 0
scalar RSVPTE4.host5.ppp[0] packetDropNoCarrier:vector(packetBytes):mean -nan
scalar RSVPTE4.host5.ppp[0] packetDropNoCarrier:vector(packetBytes):stddev nan
scalar RSVPTE4.host5.ppp[0] packetDropNoCarrier:vector(packetBytes):min inf
scalar RSVPTE4.host5.ppp[0] packetDropNoCarrier:vector(packetBytes):max -inf
scalar RSVPTE4.host5.ppp[0] packetDropNoCarrier:vector(packetBytes):starttime nan
scalar RSVPTE4.host5.ppp[0] packetDropNoCarrier:vector(packetBytes):endtime nan
scalar RSVPTE4.host5.ipv4.ip packetDropAddressResolutionFailed:vector(packetBytes):count 0
scalar RSVPTE4.host5.ipv4.ip packetDropAddressResolutionFailed:vector(packetBytes):sum 0
scalar RSVPTE4.host5.ipv4.ip packetDropAddressResolutionFailed:vector(packetBytes):sumweights 0
scalar RSVPTE4.host5.ipv4.ip packetDropAddressResolutionFailed:vector(packetBytes):mean -nan
scalar RSVPTE4.host5.ipv4.ip packetDropAddressResolutionFailed:vector(packetBytes):stddev nan
scalar RSVPTE4.host5.ipv4.ip packetDropAddressResolutionFailed:vector(packetBytes):min inf
scalar RSVPTE4.host5.ipv4.ip packetDropAddressResolutionFailed:vector(packetBytes):max -inf
scalar RSVPTE4.host5.ipv4.ip packetDropAddressResolutionFailed:vector(packetBytes):starttime nan
scalar RSVPTE4.host5.ipv4.ip packetDropAddressResolutionFailed:vector(packetBytes):endtime nan
scalar RSVPTE4.host5.ipv4.ip packetDropHopLimitReached:vector(packetBytes):count 0
scalar RSVPTE4.host5.ipv4.ip packetDropHopLimitReached:vector(packetBytes):sum 0
scalar RSVPTE4.host5.ipv4.ip packetDropHopLimitReached:vector(packetBytes):sumweights 0
scalar RSVPTE4.host5.ipv4.ip packetDropHopLimitReached:vector(packetBytes):mean -nan
scalar RSVPTE4.host5.ipv4.ip packetDropHopLimitReached:vector(packetBytes):stddev nan
scalar RSVPTE4.host5.ipv4.ip packetDropHopLimitReached:vector(packetBytes):min inf
scalar RSVPTE4.host5.ipv4.ip packetDropHopLimitReached:vector(packetBytes):max -inf
scalar RSVPTE4.host5.ipv4.ip packetDropHopLimitReached:vector(packetBytes):starttime nan
scalar RSVPTE4.host5.ipv4.ip packetDropHopLimitReached:vector(packetBytes):endtime nan
scalar RSVPTE4.host5.ipv4.ip packetDropForwardingDisabled:vector(packetBytes):count 0
scalar RSVPTE4.host5.ipv4.ip packetDropForwardingDisabled:vector(packetBytes):sum 0
scalar RSVPTE4.host5.ipv4.ip packetDropForwardingDisabled:vector(packetBytes):sumweights 0
scalar RSVPTE4.host5.ipv4.ip packetDropForwardingDisabled:vector(packetBytes):mean -nan
scalar RSVPTE4.host5.ipv4.ip packetDropForwardingDisabled:vector(packetBytes):stddev nan
scalar RSVPTE4.host5.ipv4.ip packetDropForwardingDisabled:vector(packetBytes):min inf
scalar RSVPTE4.host5.ipv4.ip packetDropForwardingDisabled:vector(packetBytes):max -inf
scalar RSVPTE4.host5.ipv4.ip packetDropForwardingDisabled:vector(packetBytes):starttime nan
scalar RSVPTE4.host5.ipv4.ip packetDropForwardingDisabled:vector(packetBytes):endtime nan
scalar RSVPTE4.host5.ipv4.ip packetDropLifetimeExpired:vector(packetBytes):count 0
scalar RSVPTE4.host5.ipv4.ip packetDropLifetimeExpired:vector(packetBytes):sum 0
scalar RSVPTE4.host5.ipv4.ip packetDropLifetimeExpired:vector(packetBytes):sumweights 0
scalar RSVPTE4.host5.ipv4.ip packetDropLifetimeExpired:vector(packetBytes):mean -nan
scalar RSVPTE4.host5.ipv4.ip packetDropLifetimeExpired:vector(packetBytes):stddev nan
scalar RSVPTE4.host5.ipv4.ip packetDropLifetimeExpired:vector(packetBytes):min inf
scalar RSVPTE4.host5.ipv4.ip packetDropLifetimeExpired:vector(packetBytes):max -inf
scalar RSVPTE4.host5.ipv4.ip packetDropLifetimeExpired:vector(packetBytes):starttime nan
scalar RSVPTE4.host5.ipv4.ip packetDropLifetimeExpired:vector(packetBytes):endtime nan
scalar RSVPTE4.host5.ipv4.ip packetDropNoInterfaceFound:vector(packetBytes):count 0
scalar RSVPTE4.host5.ipv4.ip packetDropNoInterfaceFound:vector(packetBytes):sum 0
scalar RSVPTE4.host5.ipv4.ip packetDropNoInterfaceFound:vector(packetBytes):sumweights 0
scalar RSVPTE4.host5.ipv4.ip packetDropNoInterfaceFound:vector(packetBytes):mean -nan
scalar RSVPTE4.host5.ipv4.ip packetDropNoInterfaceFound:vector(packetBytes):stddev nan
scalar RSVPTE4.host5.ipv4.ip packetDropNoInterfaceFound:vector(packetBytes):min inf
scalar RSVPTE4.host5.ipv4.ip packetDropNoInterfaceFound:vector(packetBytes):max -inf
scalar RSVPTE4.host5.ipv4.ip packetDropNoInterfaceFound:vector(packetBytes):starttime nan
scalar RSVPTE4.host5.ipv4.ip packetDropNoInterfaceFound:vector(packetBytes):endtime nan
scalar RSVPTE4.host5.ipv4.ip packetDropNoRouteFound:vector(packetBytes):count 0
scalar RSVPTE4.host5.ipv4.ip packetDropNoRouteFound:vector(packetBytes):sum 0
scalar RSVPTE4.host5.ipv4.ip packetDropNoRouteFound:vector(packetBytes):sumweights 0
scalar RSVPTE4.host5.ipv4.ip packetDropNoRouteFound:vector(packetBytes):mean -nan
scalar RSVPTE4.host5.ipv4.ip packetDropNoRouteFound:vector(packetBytes):stddev nan
scalar RSVPTE4.host5.ipv4.ip packetDropNoRouteFound:vector(packetBytes):min inf
scalar RSVPTE4.host5.ipv4.ip packetDropNoRouteFound:vector(packetBytes):max -inf
scalar RSVPTE4.host5.ipv4.ip packetDropNoRouteFound:vector(packetBytes):starttime nan
scalar RSVPTE4.host5.ipv4.ip packetDropNoRouteFound:vector(packetBytes):endtime nan
scalar RSVPTE4.host5.ipv4.ip packetDropUndefined:vector(packetBytes):count 0
scalar RSVPTE4.host5.ipv4.ip packetDropUndefined:vector(packetBytes):sum 0
scalar RSVPTE4.host5.ipv4.ip packetDropUndefined:vector(packetBytes):sumweights 0
scalar RSVPTE4.host5.ipv4.ip packetDropUndefined:vector(packetBytes):mean -nan
scalar RSVPTE4.host5.ipv4.ip packetDropUndefined:vector(packetBytes):stddev nan
scalar RSVPTE4.host5.ipv4.ip packetDropUndefined:vector(packetBytes):min inf
scalar RSVPTE4.host5.ipv4.ip packetDropUndefined:vector(packetBytes):max -inf
scalar RSVPTE4.host5.ipv4.ip packetDropUndefined:vector(packetBytes):starttime nan
scalar RSVPTE4.host5.ipv4.ip packetDropUndefined:vector(packetBytes):endtime nan
scalar RSVPTE4.host5.ipv4.arp arpRequestSent:vector(packetBytes):count 0
scalar RSVPTE4.host5.ipv4.arp arpRequestSent:vector(packetBytes):sum 0
scalar RSVPTE4.host5.ipv4.arp arpRequestSent:vector(packetBytes):sumweights 0
scalar RSVPTE4.host5.ipv4.arp arpRequestSent:vector(packetBytes):mean -nan
scalar RSVPTE4.host5.ipv4.arp arpRequestSent:vector(packetBytes):stddev nan
scalar RSVPTE4.host5.ipv4.arp arpRequestSent:vector(packetBytes):min inf
scalar RSVPTE4.host5.ipv4.arp arpRequestSent:vector(packetBytes):max -inf
scalar RSVPTE4.host5.ipv4.arp arpRequestSent:vector(packetBytes):starttime nan
scalar RSVPTE4.host5.ipv4.arp arpRequestSent:vector(packetBytes):endtime nan
scalar RSVPTE4.host5.ipv4.arp arpReplySent:vector(packetBytes):count 0
scalar RSVPTE4.host5.ipv4.arp arpReplySent:vector(packetBytes):sum 0
scalar RSVPTE4.host5.ipv4.arp arpReplySent:vector(packetBytes):sumweights 0
scalar RSVPTE4.host5.ipv4.arp arpReplySent:vector(packetBytes):mean -nan
scalar RSVPTE4.host5.ipv4.arp arpReplySent:vector(packetBytes):stddev nan
scalar RSVPTE4.host5.ipv4.arp arpReplySent:vector(packetBytes):min inf
scalar RSVPTE4.host5.ipv4.arp arpReplySent:vector(packetBytes):max -inf
scalar RSVPTE4.host5.ipv4.arp arpReplySent:vector(packetBytes):starttime nan
scalar RSVPTE4.host5.ipv4.arp arpReplySent:vector(packetBytes):endtime nan
scalar RSVPTE4.host5.udp packetSent:vector(packetBytes):count 0
scalar RSVPTE4.host5.udp packetSent:vector(packetBytes):sum 0
scalar RSVPTE4.host5.udp packetSent:vector(packetBytes):sumweights 0
scalar RSVPTE4.host5.udp packetSent:vector(packetBytes):mean -nan
scalar RSVPTE4.host5.udp packetSent:vector(packetBytes):stddev nan
scalar RSVPTE4.host5.udp packetSent:vector(packetBytes):min inf
scalar RSVPTE4.host5.udp packetSent:vector(packetBytes):max -inf
scalar RSVPTE4.host5.udp packetSent:vector(packetBytes):starttime nan
scalar RSVPTE4.host5.udp packetSent:vector(packetBytes):endtime nan
scalar RSVPTE4.host5.udp outgoingDataRate:vector:count 60
scalar RSVPTE4.host5.udp outgoingDataRate:vector:sum 0
scalar RSVPTE4.host5.udp outgoingDataRate:vector:sumweights 60
scalar RSVPTE4.host5.udp outgoingDataRate:vector:mean 0
scalar RSVPTE4.host5.udp outgoingDataRate:vector:stddev 0
scalar RSVPTE4.host5.udp outgoingDataRate:vector:min 0
scalar RSVPTE4.host5.udp outgoingDataRate:vector:max 0
scalar RSVPTE4.host5.udp outgoingDataRate:vector:starttime 0.10000000000000001
scalar RSVPTE4.host5.udp outgoingDataRate:vector:endtime 6
scalar RSVPTE4.host5.udp packetReceived:vector(packetBytes):count 0
scalar RSVPTE4.host5.udp packetReceived:vector(packetBytes):sum 0
scalar RSVPTE4.host5.udp packetReceived:vector(packetBytes):sumweights 0
scalar RSVPTE4.host5.udp packetReceived:vector(packetBytes):mean -nan
scalar RSVPTE4.host5.udp packetReceived:vector(packetBytes):stddev nan
scalar RSVPTE4.host5.udp packetReceived:vector(packetBytes):min inf
scalar RSVPTE4.host5.udp packetReceived:vector(packetBytes):max -inf
scalar RSVPTE4.host5.udp packetReceived:vector(packetBytes):starttime nan
scalar RSVPTE4.host5.udp packetReceived:vector(packetBytes):endtime nan
scalar RSVPTE4.host5.udp passedUpPk:vector(count):count 1
scalar RSVPTE4.host5.udp passedUpPk:vector(count):sum 0
scalar RSVPTE4.host5.udp passedUpPk:vector(count):sumweights 1
scalar RSVPTE4.host5.udp passedUpPk:vector(count):mean 0
scalar RSVPTE4.host5.udp passedUpPk:vector(count):stddev nan
scalar RSVPTE4.host5.udp passedUpPk:vector(count):min 0
scalar RSVPTE4.host5.udp passedUpPk:vector(count):max 0
scalar RSVPTE4.host5.udp passedUpPk:vector(count):starttime 0
scalar RSVPTE4.host5.udp passedUpPk:vector(count):endtime 0
scalar RSVPTE4.host5.udp droppedPkWrongPort:vector(count):count 1
scalar RSVPTE4.host5.udp droppedPkWrongPort:vector(count):sum 0
scalar RSVPTE4.host5.udp droppedPkWrongPort:vector(count):sumweights 1
scalar RSVPTE4.host5.udp droppedPkWrongPort:vector(count):mean 0
scalar RSVPTE4.host5.udp droppedPkWrongPort:vector(count):stddev nan
scalar RSVPTE4.host5.udp droppedPkWrongPort:vector(count):min 0
scalar RSVPTE4.host5.udp droppedPkWrongPort:vector(count):max 0
scalar RSVPTE4.host5.udp droppedPkWrongPort:vector(count):starttime 0
scalar RSVPTE4.host5.udp droppedPkWrongPort:vector(count):endtime 0
scalar RSVPTE4.host5.udp droppedPkBadChecksum:vector(count):count 1
scalar RSVPTE4.host5.udp droppedPkBadChecksum:vector(count):sum 0
scalar RSVPTE4.host5.udp droppedPkBadChecksum:vector(count):sumweights 1
scalar RSVPTE4.host5.udp droppedPkBadChecksum:vector(count):mean 0
scalar RSVPTE4.host5.udp droppedPkBadChecksum:vector(count):stddev nan
scalar RSVPTE4.host5.udp droppedPkBadChecksum:vector(count):min 0
scalar RSVPTE4.host5.udp droppedPkBadChecksum:vector(count):max 0
scalar RSVPTE4.host5.udp droppedPkBadChecksum:vector(count):starttime 0
scalar RSVPTE4.host5.udp droppedPkBadChecksum:vector(count):endtime 0

