version 3
run WallOffRtsOff-0-20260206-22:02:09-3565254
attr configname WallOffRtsOff
attr datetime 20260206-22:02:09
attr datetimef 20260206-220209
attr experiment WallOffRtsOff
attr inifile omnetpp.ini
attr iterationvars ""
attr iterationvarsd ""
attr iterationvarsf ""
attr measurement ""
attr network HiddenNodeShowcase
attr processid 3565254
attr repetition 0
attr replication #0
attr resultdir results
attr runnumber 0
attr seedset 0
config **.param-recording false
config image-path /home/attila/projects/inet/images
config output-scalar-file results/omnetpp.ini-WallOffRtsOff-#0.sca
config output-scalar-precision 17
config output-vector-file results/omnetpp.ini-WallOffRtsOff-#0.vec
config output-vector-precision 17
config record-eventlog false
config sim-time-limit 5s
config description "No wall, no RTS/CTS"
config network HiddenNodeShowcase
config sim-time-limit 5s
config *.host*.ipv4.arp.typename GlobalArp
config *.host*.wlan[*].mgmt.typename Ieee80211MgmtAdhoc
config *.host*.wlan[*].agent.typename ""
config *.host*.wlan[*].radio.signalAnalogRepresentation "\"unitDisk\""
config *.host*.wlan[*].radio.transmitter.analogModel.communicationRange 300m
config *.host*.wlan[*].bitrate 6Mbps
config **.wlan[*].mac.dcf.channelAccess.pendingQueue.packetCapacity 14
config **.wlan[*].mac.*.rateSelection.responseAckFrameBitrate 6Mbps
config **.wlan[*].mac.*.rateSelection.dataFrameBitrate 6Mbps
config **.wlan[*].mac.*.rateSelection.controlFrameBitrate 6Mbps
config *.visualizer.mediumVisualizer.displaySignals true
config *.hostA.wlan[*].radio.displayCommunicationRange true
config *.hostC.wlan[*].radio.displayCommunicationRange true
config *.hostA.wlan[*].radio.displayInterferenceRange true
config *.hostC.wlan[*].radio.displayInterferenceRange true
config *.visualizer.physicalLinkVisualizer.displayLinks true
config *.visualizer.dataLinkVisualizer.displayLinks true
config *.visualizer.dataLinkVisualizer.packetFilter "\"UDP*\""
config *.hostA.numApps 1
config *.hostA.app[0].typename UdpBasicApp
config *.hostA.app[0].destAddresses "\"hostB\""
config *.hostA.app[0].destPort 5000
config *.hostA.app[0].packetName "\"UDPData\""
config *.hostA.app[0].messageLength 1000byte
config *.hostA.app[0].sendInterval 5ms
config *.hostC.numApps 1
config *.hostC.app[0].typename UdpBasicApp
config *.hostC.app[0].destAddresses "\"hostB\""
config *.hostC.app[0].destPort 5000
config *.hostC.app[0].packetName "\"UDPData\""
config *.hostC.app[0].messageLength 1000byte
config *.hostC.app[0].sendInterval exponential(5ms)
config *.hostB.numApps 1
config *.hostB.app[0].typename UdpSink
config *.hostB.app[0].localPort 5000
config *.radioMedium.sameTransmissionStartTimeCheck "\"ignore\""
config *.radioMedium.obstacleLoss.typename IdealObstacleLoss

scalar HiddenNodeShowcase.hostA.lo[0].lo rcvdPkFromHl:count 0
scalar HiddenNodeShowcase.hostA.lo[0].lo rcvdPkFromHl:sum(packetBytes) 0
scalar HiddenNodeShowcase.hostA.lo[0].lo passedUpPk:count 0
scalar HiddenNodeShowcase.hostA.lo[0].lo passedUpPk:sum(packetBytes) 0
scalar HiddenNodeShowcase.hostA.lo[0] packetDropInterfaceDown:count 0
scalar HiddenNodeShowcase.hostA.lo[0] packetDropInterfaceDown:sum(packetBytes) 0
scalar HiddenNodeShowcase.hostA.lo[0] packetDropNoCarrier:count 0
scalar HiddenNodeShowcase.hostA.lo[0] packetDropNoCarrier:sum(packetBytes) 0
scalar HiddenNodeShowcase.hostA.wlan[0].mac.dcf.channelAccess.pendingQueue queueLength:last 1
scalar HiddenNodeShowcase.hostA.wlan[0].mac.dcf.channelAccess.pendingQueue queueLength:max 2
scalar HiddenNodeShowcase.hostA.wlan[0].mac.dcf.channelAccess.pendingQueue queueLength:timeavg 0.13271466387799993
scalar HiddenNodeShowcase.hostA.wlan[0].mac.dcf.channelAccess.pendingQueue queueBitLength:last 8512
scalar HiddenNodeShowcase.hostA.wlan[0].mac.dcf.channelAccess.pendingQueue queueBitLength:max 17024
scalar HiddenNodeShowcase.hostA.wlan[0].mac.dcf.channelAccess.pendingQueue queueBitLength:timeavg 1129.6672189295357
scalar HiddenNodeShowcase.hostA.wlan[0].mac.dcf.channelAccess.pendingQueue outgoingPackets:count 999
scalar HiddenNodeShowcase.hostA.wlan[0].mac.dcf.channelAccess.pendingQueue outgoingPacketLengths:sum 8503488
scalar HiddenNodeShowcase.hostA.wlan[0].mac.dcf.channelAccess.pendingQueue incomingPackets:count 1000
scalar HiddenNodeShowcase.hostA.wlan[0].mac.dcf.channelAccess.pendingQueue incomingPacketLengths:sum 8512000
scalar HiddenNodeShowcase.hostA.wlan[0].mac.dcf.channelAccess.pendingQueue droppedPacketsQueueOverflow:count 0
scalar HiddenNodeShowcase.hostA.wlan[0].mac.dcf.channelAccess.pendingQueue droppedPacketLengthsQueueOverflow:sum 0
scalar HiddenNodeShowcase.hostA.wlan[0].mac.dcf.channelAccess.inProgressFrames queueLength:max 2
scalar HiddenNodeShowcase.hostA.wlan[0].mac.dcf.channelAccess.inProgressFrames queueLength:timeavg 0.32220024688960774
scalar HiddenNodeShowcase.hostA.wlan[0].mac.dcf.channelAccess.contention channelAccessGranted:count 1018
scalar HiddenNodeShowcase.hostA.wlan[0].mac.dcf.channelAccess.contention stateChanged:count 15886
scalar HiddenNodeShowcase.hostA.wlan[0].mac.dcf.channelAccess channelOwnershipChanged:count 2036
scalar HiddenNodeShowcase.hostA.wlan[0].mac.dcf.originatorMacDataService packetAggregated:count 0
scalar HiddenNodeShowcase.hostA.wlan[0].mac.dcf.originatorMacDataService packetFragmented:count 0
scalar HiddenNodeShowcase.hostA.wlan[0].mac.dcf.recipientMacDataService packetDeaggregated:count 0
scalar HiddenNodeShowcase.hostA.wlan[0].mac.dcf.recipientMacDataService packetDefragmented:count 0
scalar HiddenNodeShowcase.hostA.wlan[0].mac.dcf.recipientMacDataService packetDropDuplicateDetected:count 0
scalar HiddenNodeShowcase.hostA.wlan[0].mac.dcf.recipientMacDataService packetDropDuplicateDetected:sum(packetBytes) 0
scalar HiddenNodeShowcase.hostA.wlan[0].mac.dcf.recoveryProcedure retryLimitReached:count 0
scalar HiddenNodeShowcase.hostA.wlan[0].mac.dcf frameSequenceFinished:count 1018
scalar HiddenNodeShowcase.hostA.wlan[0].mac.dcf packetReceivedFromPeer:count 999
scalar HiddenNodeShowcase.hostA.wlan[0].mac.dcf packetReceivedFromPeer:sum(packetBytes) 13986
scalar HiddenNodeShowcase.hostA.wlan[0].mac.dcf packetReceivedFromPeerUnicast:count 999
scalar HiddenNodeShowcase.hostA.wlan[0].mac.dcf packetReceivedFromPeerUnicast:sum(packetBytes) 13986
scalar HiddenNodeShowcase.hostA.wlan[0].mac.dcf packetReceivedFromPeerMulticast:count 0
scalar HiddenNodeShowcase.hostA.wlan[0].mac.dcf packetReceivedFromPeerMulticast:sum(packetBytes) 0
scalar HiddenNodeShowcase.hostA.wlan[0].mac.dcf packetReceivedFromPeerBroadcast:count 0
scalar HiddenNodeShowcase.hostA.wlan[0].mac.dcf packetReceivedFromPeerBroadcast:sum(packetBytes) 0
scalar HiddenNodeShowcase.hostA.wlan[0].mac.dcf packetReceivedFromPeerWithRetry:count 0
scalar HiddenNodeShowcase.hostA.wlan[0].mac.dcf packetReceivedFromPeerWithRetry:sum(packetBytes) 0
scalar HiddenNodeShowcase.hostA.wlan[0].mac.dcf packetReceivedFromPeerWithoutRetry:count 999
scalar HiddenNodeShowcase.hostA.wlan[0].mac.dcf packetReceivedFromPeerWithoutRetry:sum(packetBytes) 13986
scalar HiddenNodeShowcase.hostA.wlan[0].mac.dcf packetSentToPeer:count 1018
scalar HiddenNodeShowcase.hostA.wlan[0].mac.dcf packetSentToPeer:sum(packetBytes) 1083152
scalar HiddenNodeShowcase.hostA.wlan[0].mac.dcf packetSentToPeerUnicast:count 1018
scalar HiddenNodeShowcase.hostA.wlan[0].mac.dcf packetSentToPeerUnicast:sum(packetBytes) 1083152
scalar HiddenNodeShowcase.hostA.wlan[0].mac.dcf packetSentToPeerMulticast:count 0
scalar HiddenNodeShowcase.hostA.wlan[0].mac.dcf packetSentToPeerMulticast:sum(packetBytes) 0
scalar HiddenNodeShowcase.hostA.wlan[0].mac.dcf packetSentToPeerBroadcast:count 0
scalar HiddenNodeShowcase.hostA.wlan[0].mac.dcf packetSentToPeerBroadcast:sum(packetBytes) 0
scalar HiddenNodeShowcase.hostA.wlan[0].mac.dcf packetSentToPeerWithRetry:count 19
scalar HiddenNodeShowcase.hostA.wlan[0].mac.dcf packetSentToPeerWithRetry:sum(packetBytes) 20216
scalar HiddenNodeShowcase.hostA.wlan[0].mac.dcf packetSentToPeerWithoutRetry:count 999
scalar HiddenNodeShowcase.hostA.wlan[0].mac.dcf packetSentToPeerWithoutRetry:sum(packetBytes) 1062936
scalar HiddenNodeShowcase.hostA.wlan[0].mac.dcf packetDrop:count 1934
scalar HiddenNodeShowcase.hostA.wlan[0].mac.dcf packetDrop:sum(packetBytes) 1042426
scalar HiddenNodeShowcase.hostA.wlan[0].mac.dcf packetDropNotAddressedToUs:count 1934
scalar HiddenNodeShowcase.hostA.wlan[0].mac.dcf packetDropNotAddressedToUs:sum(packetBytes) 1042426
scalar HiddenNodeShowcase.hostA.wlan[0].mac.dcf packetDropQueueOverflow:count 0
scalar HiddenNodeShowcase.hostA.wlan[0].mac.dcf packetDropQueueOverflow:sum(packetBytes) 0
scalar HiddenNodeShowcase.hostA.wlan[0].mac.dcf packetDropRetryLimitReached:count 0
scalar HiddenNodeShowcase.hostA.wlan[0].mac.dcf packetDropRetryLimitReached:sum(packetBytes) 0
scalar HiddenNodeShowcase.hostA.wlan[0].mac.dcf linkBroken:count 0
scalar HiddenNodeShowcase.hostA.wlan[0].mac packetReceivedFromLower:count 2933
scalar HiddenNodeShowcase.hostA.wlan[0].mac packetReceivedFromLower:sum(packetBytes) 1056412
scalar HiddenNodeShowcase.hostA.wlan[0].mac packetSentToLower:count 1018
scalar HiddenNodeShowcase.hostA.wlan[0].mac packetSentToLower:sum(packetBytes) 1083152
scalar HiddenNodeShowcase.hostA.wlan[0].mac packetReceivedFromUpper:count 1000
scalar HiddenNodeShowcase.hostA.wlan[0].mac packetReceivedFromUpper:sum(packetBytes) 1036000
scalar HiddenNodeShowcase.hostA.wlan[0].mac packetSentToUpper:count 0
scalar HiddenNodeShowcase.hostA.wlan[0].mac packetSentToUpper:sum(packetBytes) 0
scalar HiddenNodeShowcase.hostA.wlan[0].mac packetDrop:count 1934
scalar HiddenNodeShowcase.hostA.wlan[0].mac packetDrop:sum(packetBytes) 1042426
scalar HiddenNodeShowcase.hostA.wlan[0].mac packetDropIncorrectlyReceived:count 0
scalar HiddenNodeShowcase.hostA.wlan[0].mac packetDropIncorrectlyReceived:sum(packetBytes) 0
scalar HiddenNodeShowcase.hostA.wlan[0].mac packetDropNotAddressedToUs:count 1934
scalar HiddenNodeShowcase.hostA.wlan[0].mac packetDropNotAddressedToUs:sum(packetBytes) 1042426
scalar HiddenNodeShowcase.hostA.wlan[0].mac packetDropQueueOverflow:count 0
scalar HiddenNodeShowcase.hostA.wlan[0].mac packetDropQueueOverflow:sum(packetBytes) 0
scalar HiddenNodeShowcase.hostA.wlan[0].mac packetDropRetryLimitReached:count 0
scalar HiddenNodeShowcase.hostA.wlan[0].mac packetDropRetryLimitReached:sum(packetBytes) 0
scalar HiddenNodeShowcase.hostA.wlan[0].mac packetDropDuplicateDetected:count 0
scalar HiddenNodeShowcase.hostA.wlan[0].mac packetDropDuplicateDetected:sum(packetBytes) 0
scalar HiddenNodeShowcase.hostA.wlan[0].mac packetDropOther:count 0
scalar HiddenNodeShowcase.hostA.wlan[0].mac packetDropOther:sum(packetBytes) 0
scalar HiddenNodeShowcase.hostA.wlan[0].mac linkBroken:count 0
scalar HiddenNodeShowcase.hostA.wlan[0].radio radioMode:count 2039
scalar HiddenNodeShowcase.hostA.wlan[0].radio receptionState:count 7923
scalar HiddenNodeShowcase.hostA.wlan[0].radio transmissionState:count 4072
scalar HiddenNodeShowcase.hostA.wlan[0] packetDropInterfaceDown:count 0
scalar HiddenNodeShowcase.hostA.wlan[0] packetDropInterfaceDown:sum(packetBytes) 0
scalar HiddenNodeShowcase.hostA.wlan[0] packetDropNoCarrier:count 0
scalar HiddenNodeShowcase.hostA.wlan[0] packetDropNoCarrier:sum(packetBytes) 0
scalar HiddenNodeShowcase.hostA.ipv4.ip packetDropAddressResolutionFailed:count 0
scalar HiddenNodeShowcase.hostA.ipv4.ip packetDropAddressResolutionFailed:sum(packetBytes) 0
scalar HiddenNodeShowcase.hostA.ipv4.ip packetDropHopLimitReached:count 0
scalar HiddenNodeShowcase.hostA.ipv4.ip packetDropHopLimitReached:sum(packetBytes) 0
scalar HiddenNodeShowcase.hostA.ipv4.ip packetDropForwardingDisabled:count 0
scalar HiddenNodeShowcase.hostA.ipv4.ip packetDropForwardingDisabled:sum(packetBytes) 0
scalar HiddenNodeShowcase.hostA.ipv4.ip packetDropLifetimeExpired:count 0
scalar HiddenNodeShowcase.hostA.ipv4.ip packetDropLifetimeExpired:sum(packetBytes) 0
scalar HiddenNodeShowcase.hostA.ipv4.ip packetDropNoInterfaceFound:count 0
scalar HiddenNodeShowcase.hostA.ipv4.ip packetDropNoInterfaceFound:sum(packetBytes) 0
scalar HiddenNodeShowcase.hostA.ipv4.ip packetDropNoRouteFound:count 0
scalar HiddenNodeShowcase.hostA.ipv4.ip packetDropNoRouteFound:sum(packetBytes) 0
scalar HiddenNodeShowcase.hostA.ipv4.ip packetDropUndefined:count 0
scalar HiddenNodeShowcase.hostA.ipv4.ip packetDropUndefined:sum(packetBytes) 0
scalar HiddenNodeShowcase.hostA.udp packetReceived:count 0
scalar HiddenNodeShowcase.hostA.udp packetReceived:sum(packetBytes) 0
scalar HiddenNodeShowcase.hostA.udp packetSent:count 1000
scalar HiddenNodeShowcase.hostA.udp packetSent:sum(packetBytes) 1008000
scalar HiddenNodeShowcase.hostA.udp passedUpPk:count 0
scalar HiddenNodeShowcase.hostA.udp droppedPkWrongPort:count 0
scalar HiddenNodeShowcase.hostA.udp droppedPkBadChecksum:count 0
scalar HiddenNodeShowcase.hostA.app[0] "packets sent" 1000
scalar HiddenNodeShowcase.hostA.app[0] "packets received" 0
scalar HiddenNodeShowcase.hostA.app[0] packetReceived:count 0
scalar HiddenNodeShowcase.hostA.app[0] packetReceived:sum(packetBytes) 0
scalar HiddenNodeShowcase.hostA.app[0] packetSent:count 1000
scalar HiddenNodeShowcase.hostA.app[0] packetSent:sum(packetBytes) 1000000
scalar HiddenNodeShowcase.hostB.lo[0].lo rcvdPkFromHl:count 0
scalar HiddenNodeShowcase.hostB.lo[0].lo rcvdPkFromHl:sum(packetBytes) 0
scalar HiddenNodeShowcase.hostB.lo[0].lo passedUpPk:count 0
scalar HiddenNodeShowcase.hostB.lo[0].lo passedUpPk:sum(packetBytes) 0
scalar HiddenNodeShowcase.hostB.lo[0] packetDropInterfaceDown:count 0
scalar HiddenNodeShowcase.hostB.lo[0] packetDropInterfaceDown:sum(packetBytes) 0
scalar HiddenNodeShowcase.hostB.lo[0] packetDropNoCarrier:count 0
scalar HiddenNodeShowcase.hostB.lo[0] packetDropNoCarrier:sum(packetBytes) 0
scalar HiddenNodeShowcase.hostB.wlan[0].mac.dcf.channelAccess.pendingQueue queueLength:last 0
scalar HiddenNodeShowcase.hostB.wlan[0].mac.dcf.channelAccess.pendingQueue queueLength:max 0
scalar HiddenNodeShowcase.hostB.wlan[0].mac.dcf.channelAccess.pendingQueue queueLength:timeavg 0
scalar HiddenNodeShowcase.hostB.wlan[0].mac.dcf.channelAccess.pendingQueue queueBitLength:last 0
scalar HiddenNodeShowcase.hostB.wlan[0].mac.dcf.channelAccess.pendingQueue queueBitLength:max 0
scalar HiddenNodeShowcase.hostB.wlan[0].mac.dcf.channelAccess.pendingQueue queueBitLength:timeavg 0
scalar HiddenNodeShowcase.hostB.wlan[0].mac.dcf.channelAccess.pendingQueue outgoingPackets:count 0
scalar HiddenNodeShowcase.hostB.wlan[0].mac.dcf.channelAccess.pendingQueue outgoingPacketLengths:sum 0
scalar HiddenNodeShowcase.hostB.wlan[0].mac.dcf.channelAccess.pendingQueue incomingPackets:count 0
scalar HiddenNodeShowcase.hostB.wlan[0].mac.dcf.channelAccess.pendingQueue incomingPacketLengths:sum 0
scalar HiddenNodeShowcase.hostB.wlan[0].mac.dcf.channelAccess.pendingQueue droppedPacketsQueueOverflow:count 0
scalar HiddenNodeShowcase.hostB.wlan[0].mac.dcf.channelAccess.pendingQueue droppedPacketLengthsQueueOverflow:sum 0
scalar HiddenNodeShowcase.hostB.wlan[0].mac.dcf.channelAccess.inProgressFrames queueLength:max 0
scalar HiddenNodeShowcase.hostB.wlan[0].mac.dcf.channelAccess.inProgressFrames queueLength:timeavg 0
scalar HiddenNodeShowcase.hostB.wlan[0].mac.dcf.channelAccess.contention channelAccessGranted:count 0
scalar HiddenNodeShowcase.hostB.wlan[0].mac.dcf.channelAccess.contention stateChanged:count 15846
scalar HiddenNodeShowcase.hostB.wlan[0].mac.dcf.channelAccess channelOwnershipChanged:count 0
scalar HiddenNodeShowcase.hostB.wlan[0].mac.dcf.originatorMacDataService packetAggregated:count 0
scalar HiddenNodeShowcase.hostB.wlan[0].mac.dcf.originatorMacDataService packetFragmented:count 0
scalar HiddenNodeShowcase.hostB.wlan[0].mac.dcf.recipientMacDataService packetDeaggregated:count 0
scalar HiddenNodeShowcase.hostB.wlan[0].mac.dcf.recipientMacDataService packetDefragmented:count 1966
scalar HiddenNodeShowcase.hostB.wlan[0].mac.dcf.recipientMacDataService packetDropDuplicateDetected:count 0
scalar HiddenNodeShowcase.hostB.wlan[0].mac.dcf.recipientMacDataService packetDropDuplicateDetected:sum(packetBytes) 0
scalar HiddenNodeShowcase.hostB.wlan[0].mac.dcf.recoveryProcedure retryLimitReached:count 0
scalar HiddenNodeShowcase.hostB.wlan[0].mac.dcf frameSequenceFinished:count 0
scalar HiddenNodeShowcase.hostB.wlan[0].mac.dcf packetReceivedFromPeer:count 1966
scalar HiddenNodeShowcase.hostB.wlan[0].mac.dcf packetReceivedFromPeer:sum(packetBytes) 2091824
scalar HiddenNodeShowcase.hostB.wlan[0].mac.dcf packetReceivedFromPeerUnicast:count 1966
scalar HiddenNodeShowcase.hostB.wlan[0].mac.dcf packetReceivedFromPeerUnicast:sum(packetBytes) 2091824
scalar HiddenNodeShowcase.hostB.wlan[0].mac.dcf packetReceivedFromPeerMulticast:count 0
scalar HiddenNodeShowcase.hostB.wlan[0].mac.dcf packetReceivedFromPeerMulticast:sum(packetBytes) 0
scalar HiddenNodeShowcase.hostB.wlan[0].mac.dcf packetReceivedFromPeerBroadcast:count 0
scalar HiddenNodeShowcase.hostB.wlan[0].mac.dcf packetReceivedFromPeerBroadcast:sum(packetBytes) 0
scalar HiddenNodeShowcase.hostB.wlan[0].mac.dcf packetReceivedFromPeerWithRetry:count 35
scalar HiddenNodeShowcase.hostB.wlan[0].mac.dcf packetReceivedFromPeerWithRetry:sum(packetBytes) 37240
scalar HiddenNodeShowcase.hostB.wlan[0].mac.dcf packetReceivedFromPeerWithoutRetry:count 1931
scalar HiddenNodeShowcase.hostB.wlan[0].mac.dcf packetReceivedFromPeerWithoutRetry:sum(packetBytes) 2054584
scalar HiddenNodeShowcase.hostB.wlan[0].mac.dcf packetSentToPeer:count 1966
scalar HiddenNodeShowcase.hostB.wlan[0].mac.dcf packetSentToPeer:sum(packetBytes) 27524
scalar HiddenNodeShowcase.hostB.wlan[0].mac.dcf packetSentToPeerUnicast:count 1966
scalar HiddenNodeShowcase.hostB.wlan[0].mac.dcf packetSentToPeerUnicast:sum(packetBytes) 27524
scalar HiddenNodeShowcase.hostB.wlan[0].mac.dcf packetSentToPeerMulticast:count 0
scalar HiddenNodeShowcase.hostB.wlan[0].mac.dcf packetSentToPeerMulticast:sum(packetBytes) 0
scalar HiddenNodeShowcase.hostB.wlan[0].mac.dcf packetSentToPeerBroadcast:count 0
scalar HiddenNodeShowcase.hostB.wlan[0].mac.dcf packetSentToPeerBroadcast:sum(packetBytes) 0
scalar HiddenNodeShowcase.hostB.wlan[0].mac.dcf packetSentToPeerWithRetry:count 0
scalar HiddenNodeShowcase.hostB.wlan[0].mac.dcf packetSentToPeerWithRetry:sum(packetBytes) 0
scalar HiddenNodeShowcase.hostB.wlan[0].mac.dcf packetSentToPeerWithoutRetry:count 1966
scalar HiddenNodeShowcase.hostB.wlan[0].mac.dcf packetSentToPeerWithoutRetry:sum(packetBytes) 27524
scalar HiddenNodeShowcase.hostB.wlan[0].mac.dcf packetDrop:count 0
scalar HiddenNodeShowcase.hostB.wlan[0].mac.dcf packetDrop:sum(packetBytes) 0
scalar HiddenNodeShowcase.hostB.wlan[0].mac.dcf packetDropNotAddressedToUs:count 0
scalar HiddenNodeShowcase.hostB.wlan[0].mac.dcf packetDropNotAddressedToUs:sum(packetBytes) 0
scalar HiddenNodeShowcase.hostB.wlan[0].mac.dcf packetDropQueueOverflow:count 0
scalar HiddenNodeShowcase.hostB.wlan[0].mac.dcf packetDropQueueOverflow:sum(packetBytes) 0
scalar HiddenNodeShowcase.hostB.wlan[0].mac.dcf packetDropRetryLimitReached:count 0
scalar HiddenNodeShowcase.hostB.wlan[0].mac.dcf packetDropRetryLimitReached:sum(packetBytes) 0
scalar HiddenNodeShowcase.hostB.wlan[0].mac.dcf linkBroken:count 0
scalar HiddenNodeShowcase.hostB.wlan[0].mac packetReceivedFromLower:count 1985
scalar HiddenNodeShowcase.hostB.wlan[0].mac packetReceivedFromLower:sum(packetBytes) 2112040
scalar HiddenNodeShowcase.hostB.wlan[0].mac packetSentToLower:count 1966
scalar HiddenNodeShowcase.hostB.wlan[0].mac packetSentToLower:sum(packetBytes) 27524
scalar HiddenNodeShowcase.hostB.wlan[0].mac packetReceivedFromUpper:count 0
scalar HiddenNodeShowcase.hostB.wlan[0].mac packetReceivedFromUpper:sum(packetBytes) 0
scalar HiddenNodeShowcase.hostB.wlan[0].mac packetSentToUpper:count 1966
scalar HiddenNodeShowcase.hostB.wlan[0].mac packetSentToUpper:sum(packetBytes) 2036776
scalar HiddenNodeShowcase.hostB.wlan[0].mac packetDrop:count 19
scalar HiddenNodeShowcase.hostB.wlan[0].mac packetDrop:sum(packetBytes) 20216
scalar HiddenNodeShowcase.hostB.wlan[0].mac packetDropIncorrectlyReceived:count 19
scalar HiddenNodeShowcase.hostB.wlan[0].mac packetDropIncorrectlyReceived:sum(packetBytes) 20216
scalar HiddenNodeShowcase.hostB.wlan[0].mac packetDropNotAddressedToUs:count 0
scalar HiddenNodeShowcase.hostB.wlan[0].mac packetDropNotAddressedToUs:sum(packetBytes) 0
scalar HiddenNodeShowcase.hostB.wlan[0].mac packetDropQueueOverflow:count 0
scalar HiddenNodeShowcase.hostB.wlan[0].mac packetDropQueueOverflow:sum(packetBytes) 0
scalar HiddenNodeShowcase.hostB.wlan[0].mac packetDropRetryLimitReached:count 0
scalar HiddenNodeShowcase.hostB.wlan[0].mac packetDropRetryLimitReached:sum(packetBytes) 0
scalar HiddenNodeShowcase.hostB.wlan[0].mac packetDropDuplicateDetected:count 0
scalar HiddenNodeShowcase.hostB.wlan[0].mac packetDropDuplicateDetected:sum(packetBytes) 0
scalar HiddenNodeShowcase.hostB.wlan[0].mac packetDropOther:count 0
scalar HiddenNodeShowcase.hostB.wlan[0].mac packetDropOther:sum(packetBytes) 0
scalar HiddenNodeShowcase.hostB.wlan[0].mac linkBroken:count 0
scalar HiddenNodeShowcase.hostB.wlan[0].radio radioMode:count 3935
scalar HiddenNodeShowcase.hostB.wlan[0].radio receptionState:count 7905
scalar HiddenNodeShowcase.hostB.wlan[0].radio transmissionState:count 7864
scalar HiddenNodeShowcase.hostB.wlan[0] packetDropInterfaceDown:count 0
scalar HiddenNodeShowcase.hostB.wlan[0] packetDropInterfaceDown:sum(packetBytes) 0
scalar HiddenNodeShowcase.hostB.wlan[0] packetDropNoCarrier:count 0
scalar HiddenNodeShowcase.hostB.wlan[0] packetDropNoCarrier:sum(packetBytes) 0
scalar HiddenNodeShowcase.hostB.ipv4.ip packetDropAddressResolutionFailed:count 0
scalar HiddenNodeShowcase.hostB.ipv4.ip packetDropAddressResolutionFailed:sum(packetBytes) 0
scalar HiddenNodeShowcase.hostB.ipv4.ip packetDropHopLimitReached:count 0
scalar HiddenNodeShowcase.hostB.ipv4.ip packetDropHopLimitReached:sum(packetBytes) 0
scalar HiddenNodeShowcase.hostB.ipv4.ip packetDropForwardingDisabled:count 0
scalar HiddenNodeShowcase.hostB.ipv4.ip packetDropForwardingDisabled:sum(packetBytes) 0
scalar HiddenNodeShowcase.hostB.ipv4.ip packetDropLifetimeExpired:count 0
scalar HiddenNodeShowcase.hostB.ipv4.ip packetDropLifetimeExpired:sum(packetBytes) 0
scalar HiddenNodeShowcase.hostB.ipv4.ip packetDropNoInterfaceFound:count 0
scalar HiddenNodeShowcase.hostB.ipv4.ip packetDropNoInterfaceFound:sum(packetBytes) 0
scalar HiddenNodeShowcase.hostB.ipv4.ip packetDropNoRouteFound:count 0
scalar HiddenNodeShowcase.hostB.ipv4.ip packetDropNoRouteFound:sum(packetBytes) 0
scalar HiddenNodeShowcase.hostB.ipv4.ip packetDropUndefined:count 0
scalar HiddenNodeShowcase.hostB.ipv4.ip packetDropUndefined:sum(packetBytes) 0
scalar HiddenNodeShowcase.hostB.udp packetReceived:count 1966
scalar HiddenNodeShowcase.hostB.udp packetReceived:sum(packetBytes) 1981728
scalar HiddenNodeShowcase.hostB.udp packetSent:count 0
scalar HiddenNodeShowcase.hostB.udp packetSent:sum(packetBytes) 0
scalar HiddenNodeShowcase.hostB.udp passedUpPk:count 1966
scalar HiddenNodeShowcase.hostB.udp droppedPkWrongPort:count 0
scalar HiddenNodeShowcase.hostB.udp droppedPkBadChecksum:count 0
scalar HiddenNodeShowcase.hostB.app[0] packetReceived:count 1966
scalar HiddenNodeShowcase.hostB.app[0] packetReceived:sum(packetBytes) 1966000
scalar HiddenNodeShowcase.hostC.lo[0].lo rcvdPkFromHl:count 0
scalar HiddenNodeShowcase.hostC.lo[0].lo rcvdPkFromHl:sum(packetBytes) 0
scalar HiddenNodeShowcase.hostC.lo[0].lo passedUpPk:count 0
scalar HiddenNodeShowcase.hostC.lo[0].lo passedUpPk:sum(packetBytes) 0
scalar HiddenNodeShowcase.hostC.lo[0] packetDropInterfaceDown:count 0
scalar HiddenNodeShowcase.hostC.lo[0] packetDropInterfaceDown:sum(packetBytes) 0
scalar HiddenNodeShowcase.hostC.lo[0] packetDropNoCarrier:count 0
scalar HiddenNodeShowcase.hostC.lo[0] packetDropNoCarrier:sum(packetBytes) 0
scalar HiddenNodeShowcase.hostC.wlan[0].mac.dcf.channelAccess.pendingQueue queueLength:last 0
scalar HiddenNodeShowcase.hostC.wlan[0].mac.dcf.channelAccess.pendingQueue queueLength:max 5
scalar HiddenNodeShowcase.hostC.wlan[0].mac.dcf.channelAccess.pendingQueue queueLength:timeavg 0.22631211442980009
scalar HiddenNodeShowcase.hostC.wlan[0].mac.dcf.channelAccess.pendingQueue queueBitLength:last 0
scalar HiddenNodeShowcase.hostC.wlan[0].mac.dcf.channelAccess.pendingQueue queueBitLength:max 42560
scalar HiddenNodeShowcase.hostC.wlan[0].mac.dcf.channelAccess.pendingQueue queueBitLength:timeavg 1926.3687180264583
scalar HiddenNodeShowcase.hostC.wlan[0].mac.dcf.channelAccess.pendingQueue outgoingPackets:count 969
scalar HiddenNodeShowcase.hostC.wlan[0].mac.dcf.channelAccess.pendingQueue outgoingPacketLengths:sum 8248128
scalar HiddenNodeShowcase.hostC.wlan[0].mac.dcf.channelAccess.pendingQueue incomingPackets:count 969
scalar HiddenNodeShowcase.hostC.wlan[0].mac.dcf.channelAccess.pendingQueue incomingPacketLengths:sum 8248128
scalar HiddenNodeShowcase.hostC.wlan[0].mac.dcf.channelAccess.pendingQueue droppedPacketsQueueOverflow:count 0
scalar HiddenNodeShowcase.hostC.wlan[0].mac.dcf.channelAccess.pendingQueue droppedPacketLengthsQueueOverflow:sum 0
scalar HiddenNodeShowcase.hostC.wlan[0].mac.dcf.channelAccess.inProgressFrames queueLength:max 2
scalar HiddenNodeShowcase.hostC.wlan[0].mac.dcf.channelAccess.inProgressFrames queueLength:timeavg 0.42922923351540632
scalar HiddenNodeShowcase.hostC.wlan[0].mac.dcf.channelAccess.contention channelAccessGranted:count 987
scalar HiddenNodeShowcase.hostC.wlan[0].mac.dcf.channelAccess.contention stateChanged:count 15888
scalar HiddenNodeShowcase.hostC.wlan[0].mac.dcf.channelAccess channelOwnershipChanged:count 1973
scalar HiddenNodeShowcase.hostC.wlan[0].mac.dcf.originatorMacDataService packetAggregated:count 0
scalar HiddenNodeShowcase.hostC.wlan[0].mac.dcf.originatorMacDataService packetFragmented:count 0
scalar HiddenNodeShowcase.hostC.wlan[0].mac.dcf.recipientMacDataService packetDeaggregated:count 0
scalar HiddenNodeShowcase.hostC.wlan[0].mac.dcf.recipientMacDataService packetDefragmented:count 0
scalar HiddenNodeShowcase.hostC.wlan[0].mac.dcf.recipientMacDataService packetDropDuplicateDetected:count 0
scalar HiddenNodeShowcase.hostC.wlan[0].mac.dcf.recipientMacDataService packetDropDuplicateDetected:sum(packetBytes) 0
scalar HiddenNodeShowcase.hostC.wlan[0].mac.dcf.recoveryProcedure retryLimitReached:count 0
scalar HiddenNodeShowcase.hostC.wlan[0].mac.dcf frameSequenceFinished:count 986
scalar HiddenNodeShowcase.hostC.wlan[0].mac.dcf packetReceivedFromPeer:count 967
scalar HiddenNodeShowcase.hostC.wlan[0].mac.dcf packetReceivedFromPeer:sum(packetBytes) 13538
scalar HiddenNodeShowcase.hostC.wlan[0].mac.dcf packetReceivedFromPeerUnicast:count 967
scalar HiddenNodeShowcase.hostC.wlan[0].mac.dcf packetReceivedFromPeerUnicast:sum(packetBytes) 13538
scalar HiddenNodeShowcase.hostC.wlan[0].mac.dcf packetReceivedFromPeerMulticast:count 0
scalar HiddenNodeShowcase.hostC.wlan[0].mac.dcf packetReceivedFromPeerMulticast:sum(packetBytes) 0
scalar HiddenNodeShowcase.hostC.wlan[0].mac.dcf packetReceivedFromPeerBroadcast:count 0
scalar HiddenNodeShowcase.hostC.wlan[0].mac.dcf packetReceivedFromPeerBroadcast:sum(packetBytes) 0
scalar HiddenNodeShowcase.hostC.wlan[0].mac.dcf packetReceivedFromPeerWithRetry:count 0
scalar HiddenNodeShowcase.hostC.wlan[0].mac.dcf packetReceivedFromPeerWithRetry:sum(packetBytes) 0
scalar HiddenNodeShowcase.hostC.wlan[0].mac.dcf packetReceivedFromPeerWithoutRetry:count 967
scalar HiddenNodeShowcase.hostC.wlan[0].mac.dcf packetReceivedFromPeerWithoutRetry:sum(packetBytes) 13538
scalar HiddenNodeShowcase.hostC.wlan[0].mac.dcf packetSentToPeer:count 986
scalar HiddenNodeShowcase.hostC.wlan[0].mac.dcf packetSentToPeer:sum(packetBytes) 1049104
scalar HiddenNodeShowcase.hostC.wlan[0].mac.dcf packetSentToPeerUnicast:count 986
scalar HiddenNodeShowcase.hostC.wlan[0].mac.dcf packetSentToPeerUnicast:sum(packetBytes) 1049104
scalar HiddenNodeShowcase.hostC.wlan[0].mac.dcf packetSentToPeerMulticast:count 0
scalar HiddenNodeShowcase.hostC.wlan[0].mac.dcf packetSentToPeerMulticast:sum(packetBytes) 0
scalar HiddenNodeShowcase.hostC.wlan[0].mac.dcf packetSentToPeerBroadcast:count 0
scalar HiddenNodeShowcase.hostC.wlan[0].mac.dcf packetSentToPeerBroadcast:sum(packetBytes) 0
scalar HiddenNodeShowcase.hostC.wlan[0].mac.dcf packetSentToPeerWithRetry:count 19
scalar HiddenNodeShowcase.hostC.wlan[0].mac.dcf packetSentToPeerWithRetry:sum(packetBytes) 20216
scalar HiddenNodeShowcase.hostC.wlan[0].mac.dcf packetSentToPeerWithoutRetry:count 967
scalar HiddenNodeShowcase.hostC.wlan[0].mac.dcf packetSentToPeerWithoutRetry:sum(packetBytes) 1028888
scalar HiddenNodeShowcase.hostC.wlan[0].mac.dcf packetDrop:count 1998
scalar HiddenNodeShowcase.hostC.wlan[0].mac.dcf packetDrop:sum(packetBytes) 1076922
scalar HiddenNodeShowcase.hostC.wlan[0].mac.dcf packetDropNotAddressedToUs:count 1998
scalar HiddenNodeShowcase.hostC.wlan[0].mac.dcf packetDropNotAddressedToUs:sum(packetBytes) 1076922
scalar HiddenNodeShowcase.hostC.wlan[0].mac.dcf packetDropQueueOverflow:count 0
scalar HiddenNodeShowcase.hostC.wlan[0].mac.dcf packetDropQueueOverflow:sum(packetBytes) 0
scalar HiddenNodeShowcase.hostC.wlan[0].mac.dcf packetDropRetryLimitReached:count 0
scalar HiddenNodeShowcase.hostC.wlan[0].mac.dcf packetDropRetryLimitReached:sum(packetBytes) 0
scalar HiddenNodeShowcase.hostC.wlan[0].mac.dcf linkBroken:count 0
scalar HiddenNodeShowcase.hostC.wlan[0].mac packetReceivedFromLower:count 2965
scalar HiddenNodeShowcase.hostC.wlan[0].mac packetReceivedFromLower:sum(packetBytes) 1090460
scalar HiddenNodeShowcase.hostC.wlan[0].mac packetSentToLower:count 987
scalar HiddenNodeShowcase.hostC.wlan[0].mac packetSentToLower:sum(packetBytes) 1050168
scalar HiddenNodeShowcase.hostC.wlan[0].mac packetReceivedFromUpper:count 969
scalar HiddenNodeShowcase.hostC.wlan[0].mac packetReceivedFromUpper:sum(packetBytes) 1003884
scalar HiddenNodeShowcase.hostC.wlan[0].mac packetSentToUpper:count 0
scalar HiddenNodeShowcase.hostC.wlan[0].mac packetSentToUpper:sum(packetBytes) 0
scalar HiddenNodeShowcase.hostC.wlan[0].mac packetDrop:count 1998
scalar HiddenNodeShowcase.hostC.wlan[0].mac packetDrop:sum(packetBytes) 1076922
scalar HiddenNodeShowcase.hostC.wlan[0].mac packetDropIncorrectlyReceived:count 0
scalar HiddenNodeShowcase.hostC.wlan[0].mac packetDropIncorrectlyReceived:sum(packetBytes) 0
scalar HiddenNodeShowcase.hostC.wlan[0].mac packetDropNotAddressedToUs:count 1998
scalar HiddenNodeShowcase.hostC.wlan[0].mac packetDropNotAddressedToUs:sum(packetBytes) 1076922
scalar HiddenNodeShowcase.hostC.wlan[0].mac packetDropQueueOverflow:count 0
scalar HiddenNodeShowcase.hostC.wlan[0].mac packetDropQueueOverflow:sum(packetBytes) 0
scalar HiddenNodeShowcase.hostC.wlan[0].mac packetDropRetryLimitReached:count 0
scalar HiddenNodeShowcase.hostC.wlan[0].mac packetDropRetryLimitReached:sum(packetBytes) 0
scalar HiddenNodeShowcase.hostC.wlan[0].mac packetDropDuplicateDetected:count 0
scalar HiddenNodeShowcase.hostC.wlan[0].mac packetDropDuplicateDetected:sum(packetBytes) 0
scalar HiddenNodeShowcase.hostC.wlan[0].mac packetDropOther:count 0
scalar HiddenNodeShowcase.hostC.wlan[0].mac packetDropOther:sum(packetBytes) 0
scalar HiddenNodeShowcase.hostC.wlan[0].mac linkBroken:count 0
scalar HiddenNodeShowcase.hostC.wlan[0].radio radioMode:count 1976
scalar HiddenNodeShowcase.hostC.wlan[0].radio receptionState:count 7923
scalar HiddenNodeShowcase.hostC.wlan[0].radio transmissionState:count 3946
scalar HiddenNodeShowcase.hostC.wlan[0] packetDropInterfaceDown:count 0
scalar HiddenNodeShowcase.hostC.wlan[0] packetDropInterfaceDown:sum(packetBytes) 0
scalar HiddenNodeShowcase.hostC.wlan[0] packetDropNoCarrier:count 0
scalar HiddenNodeShowcase.hostC.wlan[0] packetDropNoCarrier:sum(packetBytes) 0
scalar HiddenNodeShowcase.hostC.ipv4.ip packetDropAddressResolutionFailed:count 0
scalar HiddenNodeShowcase.hostC.ipv4.ip packetDropAddressResolutionFailed:sum(packetBytes) 0
scalar HiddenNodeShowcase.hostC.ipv4.ip packetDropHopLimitReached:count 0
scalar HiddenNodeShowcase.hostC.ipv4.ip packetDropHopLimitReached:sum(packetBytes) 0
scalar HiddenNodeShowcase.hostC.ipv4.ip packetDropForwardingDisabled:count 0
scalar HiddenNodeShowcase.hostC.ipv4.ip packetDropForwardingDisabled:sum(packetBytes) 0
scalar HiddenNodeShowcase.hostC.ipv4.ip packetDropLifetimeExpired:count 0
scalar HiddenNodeShowcase.hostC.ipv4.ip packetDropLifetimeExpired:sum(packetBytes) 0
scalar HiddenNodeShowcase.hostC.ipv4.ip packetDropNoInterfaceFound:count 0
scalar HiddenNodeShowcase.hostC.ipv4.ip packetDropNoInterfaceFound:sum(packetBytes) 0
scalar HiddenNodeShowcase.hostC.ipv4.ip packetDropNoRouteFound:count 0
scalar HiddenNodeShowcase.hostC.ipv4.ip packetDropNoRouteFound:sum(packetBytes) 0
scalar HiddenNodeShowcase.hostC.ipv4.ip packetDropUndefined:count 0
scalar HiddenNodeShowcase.hostC.ipv4.ip packetDropUndefined:sum(packetBytes) 0
scalar HiddenNodeShowcase.hostC.udp packetReceived:count 0
scalar HiddenNodeShowcase.hostC.udp packetReceived:sum(packetBytes) 0
scalar HiddenNodeShowcase.hostC.udp packetSent:count 969
scalar HiddenNodeShowcase.hostC.udp packetSent:sum(packetBytes) 976752
scalar HiddenNodeShowcase.hostC.udp passedUpPk:count 0
scalar HiddenNodeShowcase.hostC.udp droppedPkWrongPort:count 0
scalar HiddenNodeShowcase.hostC.udp droppedPkBadChecksum:count 0
scalar HiddenNodeShowcase.hostC.app[0] "packets sent" 969
scalar HiddenNodeShowcase.hostC.app[0] "packets received" 0
scalar HiddenNodeShowcase.hostC.app[0] packetReceived:count 0
scalar HiddenNodeShowcase.hostC.app[0] packetReceived:sum(packetBytes) 0
scalar HiddenNodeShowcase.hostC.app[0] packetSent:count 969
scalar HiddenNodeShowcase.hostC.app[0] packetSent:sum(packetBytes) 969000
scalar HiddenNodeShowcase.radioMedium.propagation "Arrival computation count" 7942
scalar HiddenNodeShowcase.radioMedium "transmission count" 3971
scalar HiddenNodeShowcase.radioMedium "signal send count" 7942
scalar HiddenNodeShowcase.radioMedium "reception computation count" 7942
scalar HiddenNodeShowcase.radioMedium "interference computation count" 27703
scalar HiddenNodeShowcase.radioMedium "reception decision computation count" 7883
scalar HiddenNodeShowcase.radioMedium "listening decision computation count" 11916
scalar HiddenNodeShowcase.radioMedium "reception cache hit" 85.658564773014561
scalar HiddenNodeShowcase.radioMedium "interference cache hit" 66.666666666666671
scalar HiddenNodeShowcase.radioMedium "noise cache hit" 0
scalar HiddenNodeShowcase.radioMedium "snir cache hit" 50
scalar HiddenNodeShowcase.radioMedium "reception decision cache hit" 50
scalar HiddenNodeShowcase.radioMedium "reception result cache hit" 0
scalar HiddenNodeShowcase.hostA.app[0] rcvdPkLifetime:stats:count 0
scalar HiddenNodeShowcase.hostA.app[0] rcvdPkLifetime:stats:sumweights 0
scalar HiddenNodeShowcase.hostA.app[0] rcvdPkLifetime:stats:mean -nan
scalar HiddenNodeShowcase.hostA.app[0] rcvdPkLifetime:stats:stddev nan
scalar HiddenNodeShowcase.hostA.app[0] rcvdPkLifetime:stats:min nan
scalar HiddenNodeShowcase.hostA.app[0] rcvdPkLifetime:stats:max nan
scalar HiddenNodeShowcase.hostA.app[0] rcvdPkLifetime:stats:numbins 0
scalar HiddenNodeShowcase.hostC.app[0] rcvdPkLifetime:stats:count 0
scalar HiddenNodeShowcase.hostC.app[0] rcvdPkLifetime:stats:sumweights 0
scalar HiddenNodeShowcase.hostC.app[0] rcvdPkLifetime:stats:mean -nan
scalar HiddenNodeShowcase.hostC.app[0] rcvdPkLifetime:stats:stddev nan
scalar HiddenNodeShowcase.hostC.app[0] rcvdPkLifetime:stats:min nan
scalar HiddenNodeShowcase.hostC.app[0] rcvdPkLifetime:stats:max nan
scalar HiddenNodeShowcase.hostC.app[0] rcvdPkLifetime:stats:numbins 0
scalar HiddenNodeShowcase.hostA.wlan[0].mac.dcf.channelAccess.pendingQueue queueingTime:histogram:count 999
scalar HiddenNodeShowcase.hostA.wlan[0].mac.dcf.channelAccess.pendingQueue queueingTime:histogram:sumweights 999
scalar HiddenNodeShowcase.hostA.wlan[0].mac.dcf.channelAccess.pendingQueue queueingTime:histogram:mean 0.0006642375569469466
scalar HiddenNodeShowcase.hostA.wlan[0].mac.dcf.channelAccess.pendingQueue queueingTime:histogram:stddev 0.0010383650983313069
scalar HiddenNodeShowcase.hostA.wlan[0].mac.dcf.channelAccess.pendingQueue queueingTime:histogram:min 0
scalar HiddenNodeShowcase.hostA.wlan[0].mac.dcf.channelAccess.pendingQueue queueingTime:histogram:max 0.007285310693
scalar HiddenNodeShowcase.hostA.wlan[0].mac.dcf.channelAccess.pendingQueue queueingTime:histogram:numbins 73
scalar HiddenNodeShowcase.hostA.wlan[0].mac.dcf.channelAccess.pendingQueue queueingTime:histogram:rangemin 0
scalar HiddenNodeShowcase.hostA.wlan[0].mac.dcf.channelAccess.pendingQueue queueingTime:histogram:rangemax 0.0073000000000000009
scalar HiddenNodeShowcase.hostA.wlan[0].mac.dcf.channelAccess.pendingQueue queueingTime:histogram:underflows 0
scalar HiddenNodeShowcase.hostA.wlan[0].mac.dcf.channelAccess.pendingQueue queueingTime:histogram:overflows 0
scalar HiddenNodeShowcase.hostA.wlan[0].mac.dcf.channelAccess.pendingQueue outgoingPacketLengths:histogram:count 999
scalar HiddenNodeShowcase.hostA.wlan[0].mac.dcf.channelAccess.pendingQueue outgoingPacketLengths:histogram:sumweights 999
scalar HiddenNodeShowcase.hostA.wlan[0].mac.dcf.channelAccess.pendingQueue outgoingPacketLengths:histogram:mean 8512
scalar HiddenNodeShowcase.hostA.wlan[0].mac.dcf.channelAccess.pendingQueue outgoingPacketLengths:histogram:stddev 0
scalar HiddenNodeShowcase.hostA.wlan[0].mac.dcf.channelAccess.pendingQueue outgoingPacketLengths:histogram:min 8512
scalar HiddenNodeShowcase.hostA.wlan[0].mac.dcf.channelAccess.pendingQueue outgoingPacketLengths:histogram:max 8512
scalar HiddenNodeShowcase.hostA.wlan[0].mac.dcf.channelAccess.pendingQueue outgoingPacketLengths:histogram:numbins 2
scalar HiddenNodeShowcase.hostA.wlan[0].mac.dcf.channelAccess.pendingQueue outgoingPacketLengths:histogram:rangemin 8511
scalar HiddenNodeShowcase.hostA.wlan[0].mac.dcf.channelAccess.pendingQueue outgoingPacketLengths:histogram:rangemax 8513
scalar HiddenNodeShowcase.hostA.wlan[0].mac.dcf.channelAccess.pendingQueue outgoingPacketLengths:histogram:underflows 0
scalar HiddenNodeShowcase.hostA.wlan[0].mac.dcf.channelAccess.pendingQueue outgoingPacketLengths:histogram:overflows 0
scalar HiddenNodeShowcase.hostA.wlan[0].mac.dcf.channelAccess.pendingQueue flowQueueingTime:histogram:count 0
scalar HiddenNodeShowcase.hostA.wlan[0].mac.dcf.channelAccess.pendingQueue flowQueueingTime:histogram:sumweights 0
scalar HiddenNodeShowcase.hostA.wlan[0].mac.dcf.channelAccess.pendingQueue flowQueueingTime:histogram:mean -nan
scalar HiddenNodeShowcase.hostA.wlan[0].mac.dcf.channelAccess.pendingQueue flowQueueingTime:histogram:stddev nan
scalar HiddenNodeShowcase.hostA.wlan[0].mac.dcf.channelAccess.pendingQueue flowQueueingTime:histogram:min nan
scalar HiddenNodeShowcase.hostA.wlan[0].mac.dcf.channelAccess.pendingQueue flowQueueingTime:histogram:max nan
scalar HiddenNodeShowcase.hostA.wlan[0].mac.dcf.channelAccess.pendingQueue flowQueueingTime:histogram:numbins 1
scalar HiddenNodeShowcase.hostA.wlan[0].mac.dcf.channelAccess.pendingQueue flowQueueingTime:histogram:rangemin 0
scalar HiddenNodeShowcase.hostA.wlan[0].mac.dcf.channelAccess.pendingQueue flowQueueingTime:histogram:rangemax 1
scalar HiddenNodeShowcase.hostA.wlan[0].mac.dcf.channelAccess.pendingQueue flowQueueingTime:histogram:underflows 0
scalar HiddenNodeShowcase.hostA.wlan[0].mac.dcf.channelAccess.pendingQueue flowQueueingTime:histogram:overflows 0
scalar HiddenNodeShowcase.hostA.wlan[0].mac.dcf.channelAccess.pendingQueue incomingPacketLengths:histogram:count 1000
scalar HiddenNodeShowcase.hostA.wlan[0].mac.dcf.channelAccess.pendingQueue incomingPacketLengths:histogram:sumweights 1000
scalar HiddenNodeShowcase.hostA.wlan[0].mac.dcf.channelAccess.pendingQueue incomingPacketLengths:histogram:mean 8512
scalar HiddenNodeShowcase.hostA.wlan[0].mac.dcf.channelAccess.pendingQueue incomingPacketLengths:histogram:stddev 0
scalar HiddenNodeShowcase.hostA.wlan[0].mac.dcf.channelAccess.pendingQueue incomingPacketLengths:histogram:min 8512
scalar HiddenNodeShowcase.hostA.wlan[0].mac.dcf.channelAccess.pendingQueue incomingPacketLengths:histogram:max 8512
scalar HiddenNodeShowcase.hostA.wlan[0].mac.dcf.channelAccess.pendingQueue incomingPacketLengths:histogram:numbins 2
scalar HiddenNodeShowcase.hostA.wlan[0].mac.dcf.channelAccess.pendingQueue incomingPacketLengths:histogram:rangemin 8511
scalar HiddenNodeShowcase.hostA.wlan[0].mac.dcf.channelAccess.pendingQueue incomingPacketLengths:histogram:rangemax 8513
scalar HiddenNodeShowcase.hostA.wlan[0].mac.dcf.channelAccess.pendingQueue incomingPacketLengths:histogram:underflows 0
scalar HiddenNodeShowcase.hostA.wlan[0].mac.dcf.channelAccess.pendingQueue incomingPacketLengths:histogram:overflows 0
scalar HiddenNodeShowcase.hostA.wlan[0].mac.dcf.channelAccess.inProgressFrames queueingTime:histogram:count 999
scalar HiddenNodeShowcase.hostA.wlan[0].mac.dcf.channelAccess.inProgressFrames queueingTime:histogram:sumweights 999
scalar HiddenNodeShowcase.hostA.wlan[0].mac.dcf.channelAccess.inProgressFrames queueingTime:histogram:mean 0.0016126138482963346
scalar HiddenNodeShowcase.hostA.wlan[0].mac.dcf.channelAccess.inProgressFrames queueingTime:histogram:stddev 0.00068213089313317568
scalar HiddenNodeShowcase.hostA.wlan[0].mac.dcf.channelAccess.inProgressFrames queueingTime:histogram:min 0.0015115225140000001
scalar HiddenNodeShowcase.hostA.wlan[0].mac.dcf.channelAccess.inProgressFrames queueingTime:histogram:max 0.012019135084
scalar HiddenNodeShowcase.hostA.wlan[0].mac.dcf.channelAccess.inProgressFrames queueingTime:histogram:numbins 51
scalar HiddenNodeShowcase.hostA.wlan[0].mac.dcf.channelAccess.inProgressFrames queueingTime:histogram:rangemin 0
scalar HiddenNodeShowcase.hostA.wlan[0].mac.dcf.channelAccess.inProgressFrames queueingTime:histogram:rangemax 0.51000000000000001
scalar HiddenNodeShowcase.hostA.wlan[0].mac.dcf.channelAccess.inProgressFrames queueingTime:histogram:underflows 0
scalar HiddenNodeShowcase.hostA.wlan[0].mac.dcf.channelAccess.inProgressFrames queueingTime:histogram:overflows 0
scalar HiddenNodeShowcase.hostA.wlan[0].mac.dcf frameSequenceDuration:histogram:count 1018
scalar HiddenNodeShowcase.hostA.wlan[0].mac.dcf frameSequenceDuration:histogram:sumweights 1018
scalar HiddenNodeShowcase.hostA.wlan[0].mac.dcf frameSequenceDuration:histogram:mean 0.0015114007774911945
scalar HiddenNodeShowcase.hostA.wlan[0].mac.dcf frameSequenceDuration:histogram:stddev 8.8316155705657287e-07
scalar HiddenNodeShowcase.hostA.wlan[0].mac.dcf frameSequenceDuration:histogram:min 0.001505
scalar HiddenNodeShowcase.hostA.wlan[0].mac.dcf frameSequenceDuration:histogram:max 0.0015115225140000001
scalar HiddenNodeShowcase.hostA.wlan[0].mac.dcf frameSequenceDuration:histogram:numbins 51
scalar HiddenNodeShowcase.hostA.wlan[0].mac.dcf frameSequenceDuration:histogram:rangemin 0
scalar HiddenNodeShowcase.hostA.wlan[0].mac.dcf frameSequenceDuration:histogram:rangemax 0.51000000000000001
scalar HiddenNodeShowcase.hostA.wlan[0].mac.dcf frameSequenceDuration:histogram:underflows 0
scalar HiddenNodeShowcase.hostA.wlan[0].mac.dcf frameSequenceDuration:histogram:overflows 0
scalar HiddenNodeShowcase.hostA.wlan[0].mac.dcf frameSequenceNumPackets:histogram:count 1018
scalar HiddenNodeShowcase.hostA.wlan[0].mac.dcf frameSequenceNumPackets:histogram:sumweights 1018
scalar HiddenNodeShowcase.hostA.wlan[0].mac.dcf frameSequenceNumPackets:histogram:mean 2
scalar HiddenNodeShowcase.hostA.wlan[0].mac.dcf frameSequenceNumPackets:histogram:stddev 0
scalar HiddenNodeShowcase.hostA.wlan[0].mac.dcf frameSequenceNumPackets:histogram:min 2
scalar HiddenNodeShowcase.hostA.wlan[0].mac.dcf frameSequenceNumPackets:histogram:max 2
scalar HiddenNodeShowcase.hostA.wlan[0].mac.dcf frameSequenceNumPackets:histogram:numbins 2
scalar HiddenNodeShowcase.hostA.wlan[0].mac.dcf frameSequenceNumPackets:histogram:rangemin 1
scalar HiddenNodeShowcase.hostA.wlan[0].mac.dcf frameSequenceNumPackets:histogram:rangemax 3
scalar HiddenNodeShowcase.hostA.wlan[0].mac.dcf frameSequenceNumPackets:histogram:underflows 0
scalar HiddenNodeShowcase.hostA.wlan[0].mac.dcf frameSequenceNumPackets:histogram:overflows 0
scalar HiddenNodeShowcase.hostA.wlan[0].radio radioChannel:histogram:count 1
scalar HiddenNodeShowcase.hostA.wlan[0].radio radioChannel:histogram:sumweights 1
scalar HiddenNodeShowcase.hostA.wlan[0].radio radioChannel:histogram:mean 0
scalar HiddenNodeShowcase.hostA.wlan[0].radio radioChannel:histogram:stddev nan
scalar HiddenNodeShowcase.hostA.wlan[0].radio radioChannel:histogram:min 0
scalar HiddenNodeShowcase.hostA.wlan[0].radio radioChannel:histogram:max 0
scalar HiddenNodeShowcase.hostA.wlan[0].radio radioChannel:histogram:numbins 50
scalar HiddenNodeShowcase.hostA.wlan[0].radio radioChannel:histogram:rangemin -0.5
scalar HiddenNodeShowcase.hostA.wlan[0].radio radioChannel:histogram:rangemax 0.5
scalar HiddenNodeShowcase.hostA.wlan[0].radio radioChannel:histogram:underflows 0
scalar HiddenNodeShowcase.hostA.wlan[0].radio radioChannel:histogram:overflows 0
scalar HiddenNodeShowcase.hostA.wlan[0].radio minSnir:histogram:count 2933
scalar HiddenNodeShowcase.hostA.wlan[0].radio minSnir:histogram:sumweights 2933
scalar HiddenNodeShowcase.hostA.wlan[0].radio minSnir:histogram:mean inf
scalar HiddenNodeShowcase.hostA.wlan[0].radio minSnir:histogram:stddev 0
scalar HiddenNodeShowcase.hostA.wlan[0].radio minSnir:histogram:min inf
scalar HiddenNodeShowcase.hostA.wlan[0].radio minSnir:histogram:max inf
scalar HiddenNodeShowcase.hostA.wlan[0].radio minSnir:histogram:numbins 1
scalar HiddenNodeShowcase.hostA.wlan[0].radio minSnir:histogram:rangemin 0
scalar HiddenNodeShowcase.hostA.wlan[0].radio minSnir:histogram:rangemax 1
scalar HiddenNodeShowcase.hostA.wlan[0].radio minSnir:histogram:underflows 0
scalar HiddenNodeShowcase.hostA.wlan[0].radio minSnir:histogram:overflows 2933
scalar HiddenNodeShowcase.hostA.wlan[0].radio packetErrorRate:histogram:count 2933
scalar HiddenNodeShowcase.hostA.wlan[0].radio packetErrorRate:histogram:sumweights 2933
scalar HiddenNodeShowcase.hostA.wlan[0].radio packetErrorRate:histogram:mean 0
scalar HiddenNodeShowcase.hostA.wlan[0].radio packetErrorRate:histogram:stddev 0
scalar HiddenNodeShowcase.hostA.wlan[0].radio packetErrorRate:histogram:min 0
scalar HiddenNodeShowcase.hostA.wlan[0].radio packetErrorRate:histogram:max 0
scalar HiddenNodeShowcase.hostA.wlan[0].radio packetErrorRate:histogram:numbins 50
scalar HiddenNodeShowcase.hostA.wlan[0].radio packetErrorRate:histogram:rangemin -0.5
scalar HiddenNodeShowcase.hostA.wlan[0].radio packetErrorRate:histogram:rangemax 0.5
scalar HiddenNodeShowcase.hostA.wlan[0].radio packetErrorRate:histogram:underflows 0
scalar HiddenNodeShowcase.hostA.wlan[0].radio packetErrorRate:histogram:overflows 0
scalar HiddenNodeShowcase.hostA.wlan[0].radio bitErrorRate:histogram:count 2933
scalar HiddenNodeShowcase.hostA.wlan[0].radio bitErrorRate:histogram:sumweights 2933
scalar HiddenNodeShowcase.hostA.wlan[0].radio bitErrorRate:histogram:mean 0
scalar HiddenNodeShowcase.hostA.wlan[0].radio bitErrorRate:histogram:stddev 0
scalar HiddenNodeShowcase.hostA.wlan[0].radio bitErrorRate:histogram:min 0
scalar HiddenNodeShowcase.hostA.wlan[0].radio bitErrorRate:histogram:max 0
scalar HiddenNodeShowcase.hostA.wlan[0].radio bitErrorRate:histogram:numbins 50
scalar HiddenNodeShowcase.hostA.wlan[0].radio bitErrorRate:histogram:rangemin -0.5
scalar HiddenNodeShowcase.hostA.wlan[0].radio bitErrorRate:histogram:rangemax 0.5
scalar HiddenNodeShowcase.hostA.wlan[0].radio bitErrorRate:histogram:underflows 0
scalar HiddenNodeShowcase.hostA.wlan[0].radio bitErrorRate:histogram:overflows 0
scalar HiddenNodeShowcase.hostA.wlan[0].radio symbolErrorRate:histogram:count 2933
scalar HiddenNodeShowcase.hostA.wlan[0].radio symbolErrorRate:histogram:sumweights 2933
scalar HiddenNodeShowcase.hostA.wlan[0].radio symbolErrorRate:histogram:mean 0
scalar HiddenNodeShowcase.hostA.wlan[0].radio symbolErrorRate:histogram:stddev 0
scalar HiddenNodeShowcase.hostA.wlan[0].radio symbolErrorRate:histogram:min 0
scalar HiddenNodeShowcase.hostA.wlan[0].radio symbolErrorRate:histogram:max 0
scalar HiddenNodeShowcase.hostA.wlan[0].radio symbolErrorRate:histogram:numbins 50
scalar HiddenNodeShowcase.hostA.wlan[0].radio symbolErrorRate:histogram:rangemin -0.5
scalar HiddenNodeShowcase.hostA.wlan[0].radio symbolErrorRate:histogram:rangemax 0.5
scalar HiddenNodeShowcase.hostA.wlan[0].radio symbolErrorRate:histogram:underflows 0
scalar HiddenNodeShowcase.hostA.wlan[0].radio symbolErrorRate:histogram:overflows 0
scalar HiddenNodeShowcase.hostB.wlan[0].mac.dcf.channelAccess.pendingQueue queueingTime:histogram:count 0
scalar HiddenNodeShowcase.hostB.wlan[0].mac.dcf.channelAccess.pendingQueue queueingTime:histogram:sumweights 0
scalar HiddenNodeShowcase.hostB.wlan[0].mac.dcf.channelAccess.pendingQueue queueingTime:histogram:mean -nan
scalar HiddenNodeShowcase.hostB.wlan[0].mac.dcf.channelAccess.pendingQueue queueingTime:histogram:stddev nan
scalar HiddenNodeShowcase.hostB.wlan[0].mac.dcf.channelAccess.pendingQueue queueingTime:histogram:min nan
scalar HiddenNodeShowcase.hostB.wlan[0].mac.dcf.channelAccess.pendingQueue queueingTime:histogram:max nan
scalar HiddenNodeShowcase.hostB.wlan[0].mac.dcf.channelAccess.pendingQueue queueingTime:histogram:numbins 1
scalar HiddenNodeShowcase.hostB.wlan[0].mac.dcf.channelAccess.pendingQueue queueingTime:histogram:rangemin 0
scalar HiddenNodeShowcase.hostB.wlan[0].mac.dcf.channelAccess.pendingQueue queueingTime:histogram:rangemax 1
scalar HiddenNodeShowcase.hostB.wlan[0].mac.dcf.channelAccess.pendingQueue queueingTime:histogram:underflows 0
scalar HiddenNodeShowcase.hostB.wlan[0].mac.dcf.channelAccess.pendingQueue queueingTime:histogram:overflows 0
scalar HiddenNodeShowcase.hostB.wlan[0].mac.dcf.channelAccess.pendingQueue outgoingPacketLengths:histogram:count 0
scalar HiddenNodeShowcase.hostB.wlan[0].mac.dcf.channelAccess.pendingQueue outgoingPacketLengths:histogram:sumweights 0
scalar HiddenNodeShowcase.hostB.wlan[0].mac.dcf.channelAccess.pendingQueue outgoingPacketLengths:histogram:mean -nan
scalar HiddenNodeShowcase.hostB.wlan[0].mac.dcf.channelAccess.pendingQueue outgoingPacketLengths:histogram:stddev nan
scalar HiddenNodeShowcase.hostB.wlan[0].mac.dcf.channelAccess.pendingQueue outgoingPacketLengths:histogram:min nan
scalar HiddenNodeShowcase.hostB.wlan[0].mac.dcf.channelAccess.pendingQueue outgoingPacketLengths:histogram:max nan
scalar HiddenNodeShowcase.hostB.wlan[0].mac.dcf.channelAccess.pendingQueue outgoingPacketLengths:histogram:numbins 1
scalar HiddenNodeShowcase.hostB.wlan[0].mac.dcf.channelAccess.pendingQueue outgoingPacketLengths:histogram:rangemin 0
scalar HiddenNodeShowcase.hostB.wlan[0].mac.dcf.channelAccess.pendingQueue outgoingPacketLengths:histogram:rangemax 1
scalar HiddenNodeShowcase.hostB.wlan[0].mac.dcf.channelAccess.pendingQueue outgoingPacketLengths:histogram:underflows 0
scalar HiddenNodeShowcase.hostB.wlan[0].mac.dcf.channelAccess.pendingQueue outgoingPacketLengths:histogram:overflows 0
scalar HiddenNodeShowcase.hostB.wlan[0].mac.dcf.channelAccess.pendingQueue flowQueueingTime:histogram:count 0
scalar HiddenNodeShowcase.hostB.wlan[0].mac.dcf.channelAccess.pendingQueue flowQueueingTime:histogram:sumweights 0
scalar HiddenNodeShowcase.hostB.wlan[0].mac.dcf.channelAccess.pendingQueue flowQueueingTime:histogram:mean -nan
scalar HiddenNodeShowcase.hostB.wlan[0].mac.dcf.channelAccess.pendingQueue flowQueueingTime:histogram:stddev nan
scalar HiddenNodeShowcase.hostB.wlan[0].mac.dcf.channelAccess.pendingQueue flowQueueingTime:histogram:min nan
scalar HiddenNodeShowcase.hostB.wlan[0].mac.dcf.channelAccess.pendingQueue flowQueueingTime:histogram:max nan
scalar HiddenNodeShowcase.hostB.wlan[0].mac.dcf.channelAccess.pendingQueue flowQueueingTime:histogram:numbins 1
scalar HiddenNodeShowcase.hostB.wlan[0].mac.dcf.channelAccess.pendingQueue flowQueueingTime:histogram:rangemin 0
scalar HiddenNodeShowcase.hostB.wlan[0].mac.dcf.channelAccess.pendingQueue flowQueueingTime:histogram:rangemax 1
scalar HiddenNodeShowcase.hostB.wlan[0].mac.dcf.channelAccess.pendingQueue flowQueueingTime:histogram:underflows 0
scalar HiddenNodeShowcase.hostB.wlan[0].mac.dcf.channelAccess.pendingQueue flowQueueingTime:histogram:overflows 0
scalar HiddenNodeShowcase.hostB.wlan[0].mac.dcf.channelAccess.pendingQueue incomingPacketLengths:histogram:count 0
scalar HiddenNodeShowcase.hostB.wlan[0].mac.dcf.channelAccess.pendingQueue incomingPacketLengths:histogram:sumweights 0
scalar HiddenNodeShowcase.hostB.wlan[0].mac.dcf.channelAccess.pendingQueue incomingPacketLengths:histogram:mean -nan
scalar HiddenNodeShowcase.hostB.wlan[0].mac.dcf.channelAccess.pendingQueue incomingPacketLengths:histogram:stddev nan
scalar HiddenNodeShowcase.hostB.wlan[0].mac.dcf.channelAccess.pendingQueue incomingPacketLengths:histogram:min nan
scalar HiddenNodeShowcase.hostB.wlan[0].mac.dcf.channelAccess.pendingQueue incomingPacketLengths:histogram:max nan
scalar HiddenNodeShowcase.hostB.wlan[0].mac.dcf.channelAccess.pendingQueue incomingPacketLengths:histogram:numbins 1
scalar HiddenNodeShowcase.hostB.wlan[0].mac.dcf.channelAccess.pendingQueue incomingPacketLengths:histogram:rangemin 0
scalar HiddenNodeShowcase.hostB.wlan[0].mac.dcf.channelAccess.pendingQueue incomingPacketLengths:histogram:rangemax 1
scalar HiddenNodeShowcase.hostB.wlan[0].mac.dcf.channelAccess.pendingQueue incomingPacketLengths:histogram:underflows 0
scalar HiddenNodeShowcase.hostB.wlan[0].mac.dcf.channelAccess.pendingQueue incomingPacketLengths:histogram:overflows 0
scalar HiddenNodeShowcase.hostB.wlan[0].mac.dcf.channelAccess.inProgressFrames queueingTime:histogram:count 0
scalar HiddenNodeShowcase.hostB.wlan[0].mac.dcf.channelAccess.inProgressFrames queueingTime:histogram:sumweights 0
scalar HiddenNodeShowcase.hostB.wlan[0].mac.dcf.channelAccess.inProgressFrames queueingTime:histogram:mean -nan
scalar HiddenNodeShowcase.hostB.wlan[0].mac.dcf.channelAccess.inProgressFrames queueingTime:histogram:stddev nan
scalar HiddenNodeShowcase.hostB.wlan[0].mac.dcf.channelAccess.inProgressFrames queueingTime:histogram:min nan
scalar HiddenNodeShowcase.hostB.wlan[0].mac.dcf.channelAccess.inProgressFrames queueingTime:histogram:max nan
scalar HiddenNodeShowcase.hostB.wlan[0].mac.dcf.channelAccess.inProgressFrames queueingTime:histogram:numbins 1
scalar HiddenNodeShowcase.hostB.wlan[0].mac.dcf.channelAccess.inProgressFrames queueingTime:histogram:rangemin 0
scalar HiddenNodeShowcase.hostB.wlan[0].mac.dcf.channelAccess.inProgressFrames queueingTime:histogram:rangemax 1
scalar HiddenNodeShowcase.hostB.wlan[0].mac.dcf.channelAccess.inProgressFrames queueingTime:histogram:underflows 0
scalar HiddenNodeShowcase.hostB.wlan[0].mac.dcf.channelAccess.inProgressFrames queueingTime:histogram:overflows 0
scalar HiddenNodeShowcase.hostB.wlan[0].mac.dcf frameSequenceDuration:histogram:count 0
scalar HiddenNodeShowcase.hostB.wlan[0].mac.dcf frameSequenceDuration:histogram:sumweights 0
scalar HiddenNodeShowcase.hostB.wlan[0].mac.dcf frameSequenceDuration:histogram:mean -nan
scalar HiddenNodeShowcase.hostB.wlan[0].mac.dcf frameSequenceDuration:histogram:stddev nan
scalar HiddenNodeShowcase.hostB.wlan[0].mac.dcf frameSequenceDuration:histogram:min nan
scalar HiddenNodeShowcase.hostB.wlan[0].mac.dcf frameSequenceDuration:histogram:max nan
scalar HiddenNodeShowcase.hostB.wlan[0].mac.dcf frameSequenceDuration:histogram:numbins 1
scalar HiddenNodeShowcase.hostB.wlan[0].mac.dcf frameSequenceDuration:histogram:rangemin 0
scalar HiddenNodeShowcase.hostB.wlan[0].mac.dcf frameSequenceDuration:histogram:rangemax 1
scalar HiddenNodeShowcase.hostB.wlan[0].mac.dcf frameSequenceDuration:histogram:underflows 0
scalar HiddenNodeShowcase.hostB.wlan[0].mac.dcf frameSequenceDuration:histogram:overflows 0
scalar HiddenNodeShowcase.hostB.wlan[0].mac.dcf frameSequenceNumPackets:histogram:count 0
scalar HiddenNodeShowcase.hostB.wlan[0].mac.dcf frameSequenceNumPackets:histogram:sumweights 0
scalar HiddenNodeShowcase.hostB.wlan[0].mac.dcf frameSequenceNumPackets:histogram:mean -nan
scalar HiddenNodeShowcase.hostB.wlan[0].mac.dcf frameSequenceNumPackets:histogram:stddev nan
scalar HiddenNodeShowcase.hostB.wlan[0].mac.dcf frameSequenceNumPackets:histogram:min nan
scalar HiddenNodeShowcase.hostB.wlan[0].mac.dcf frameSequenceNumPackets:histogram:max nan
scalar HiddenNodeShowcase.hostB.wlan[0].mac.dcf frameSequenceNumPackets:histogram:numbins 1
scalar HiddenNodeShowcase.hostB.wlan[0].mac.dcf frameSequenceNumPackets:histogram:rangemin 0
scalar HiddenNodeShowcase.hostB.wlan[0].mac.dcf frameSequenceNumPackets:histogram:rangemax 1
scalar HiddenNodeShowcase.hostB.wlan[0].mac.dcf frameSequenceNumPackets:histogram:underflows 0
scalar HiddenNodeShowcase.hostB.wlan[0].mac.dcf frameSequenceNumPackets:histogram:overflows 0
scalar HiddenNodeShowcase.hostB.wlan[0].radio radioChannel:histogram:count 1
scalar HiddenNodeShowcase.hostB.wlan[0].radio radioChannel:histogram:sumweights 1
scalar HiddenNodeShowcase.hostB.wlan[0].radio radioChannel:histogram:mean 0
scalar HiddenNodeShowcase.hostB.wlan[0].radio radioChannel:histogram:stddev nan
scalar HiddenNodeShowcase.hostB.wlan[0].radio radioChannel:histogram:min 0
scalar HiddenNodeShowcase.hostB.wlan[0].radio radioChannel:histogram:max 0
scalar HiddenNodeShowcase.hostB.wlan[0].radio radioChannel:histogram:numbins 50
scalar HiddenNodeShowcase.hostB.wlan[0].radio radioChannel:histogram:rangemin -0.5
scalar HiddenNodeShowcase.hostB.wlan[0].radio radioChannel:histogram:rangemax 0.5
scalar HiddenNodeShowcase.hostB.wlan[0].radio radioChannel:histogram:underflows 0
scalar HiddenNodeShowcase.hostB.wlan[0].radio radioChannel:histogram:overflows 0
scalar HiddenNodeShowcase.hostB.wlan[0].radio minSnir:histogram:count 1985
scalar HiddenNodeShowcase.hostB.wlan[0].radio minSnir:histogram:sumweights 1985
scalar HiddenNodeShowcase.hostB.wlan[0].radio minSnir:histogram:mean inf
scalar HiddenNodeShowcase.hostB.wlan[0].radio minSnir:histogram:stddev -nan
scalar HiddenNodeShowcase.hostB.wlan[0].radio minSnir:histogram:min 0
scalar HiddenNodeShowcase.hostB.wlan[0].radio minSnir:histogram:max inf
scalar HiddenNodeShowcase.hostB.wlan[0].radio minSnir:histogram:numbins 50
scalar HiddenNodeShowcase.hostB.wlan[0].radio minSnir:histogram:rangemin -0.5
scalar HiddenNodeShowcase.hostB.wlan[0].radio minSnir:histogram:rangemax 0.5
scalar HiddenNodeShowcase.hostB.wlan[0].radio minSnir:histogram:underflows 0
scalar HiddenNodeShowcase.hostB.wlan[0].radio minSnir:histogram:overflows 1966
scalar HiddenNodeShowcase.hostB.wlan[0].radio packetErrorRate:histogram:count 1985
scalar HiddenNodeShowcase.hostB.wlan[0].radio packetErrorRate:histogram:sumweights 1985
scalar HiddenNodeShowcase.hostB.wlan[0].radio packetErrorRate:histogram:mean 0.0095717884130982374
scalar HiddenNodeShowcase.hostB.wlan[0].radio packetErrorRate:histogram:stddev 0.097390695606931477
scalar HiddenNodeShowcase.hostB.wlan[0].radio packetErrorRate:histogram:min 0
scalar HiddenNodeShowcase.hostB.wlan[0].radio packetErrorRate:histogram:max 1
scalar HiddenNodeShowcase.hostB.wlan[0].radio packetErrorRate:histogram:numbins 76
scalar HiddenNodeShowcase.hostB.wlan[0].radio packetErrorRate:histogram:rangemin -0.5
scalar HiddenNodeShowcase.hostB.wlan[0].radio packetErrorRate:histogram:rangemax 1.02
scalar HiddenNodeShowcase.hostB.wlan[0].radio packetErrorRate:histogram:underflows 0
scalar HiddenNodeShowcase.hostB.wlan[0].radio packetErrorRate:histogram:overflows 0
scalar HiddenNodeShowcase.hostB.wlan[0].radio bitErrorRate:histogram:count 1985
scalar HiddenNodeShowcase.hostB.wlan[0].radio bitErrorRate:histogram:sumweights 1985
scalar HiddenNodeShowcase.hostB.wlan[0].radio bitErrorRate:histogram:mean 0.0095717884130982374
scalar HiddenNodeShowcase.hostB.wlan[0].radio bitErrorRate:histogram:stddev 0.097390695606931477
scalar HiddenNodeShowcase.hostB.wlan[0].radio bitErrorRate:histogram:min 0
scalar HiddenNodeShowcase.hostB.wlan[0].radio bitErrorRate:histogram:max 1
scalar HiddenNodeShowcase.hostB.wlan[0].radio bitErrorRate:histogram:numbins 76
scalar HiddenNodeShowcase.hostB.wlan[0].radio bitErrorRate:histogram:rangemin -0.5
scalar HiddenNodeShowcase.hostB.wlan[0].radio bitErrorRate:histogram:rangemax 1.02
scalar HiddenNodeShowcase.hostB.wlan[0].radio bitErrorRate:histogram:underflows 0
scalar HiddenNodeShowcase.hostB.wlan[0].radio bitErrorRate:histogram:overflows 0
scalar HiddenNodeShowcase.hostB.wlan[0].radio symbolErrorRate:histogram:count 1985
scalar HiddenNodeShowcase.hostB.wlan[0].radio symbolErrorRate:histogram:sumweights 1985
scalar HiddenNodeShowcase.hostB.wlan[0].radio symbolErrorRate:histogram:mean 0.0095717884130982374
scalar HiddenNodeShowcase.hostB.wlan[0].radio symbolErrorRate:histogram:stddev 0.097390695606931477
scalar HiddenNodeShowcase.hostB.wlan[0].radio symbolErrorRate:histogram:min 0
scalar HiddenNodeShowcase.hostB.wlan[0].radio symbolErrorRate:histogram:max 1
scalar HiddenNodeShowcase.hostB.wlan[0].radio symbolErrorRate:histogram:numbins 76
scalar HiddenNodeShowcase.hostB.wlan[0].radio symbolErrorRate:histogram:rangemin -0.5
scalar HiddenNodeShowcase.hostB.wlan[0].radio symbolErrorRate:histogram:rangemax 1.02
scalar HiddenNodeShowcase.hostB.wlan[0].radio symbolErrorRate:histogram:underflows 0
scalar HiddenNodeShowcase.hostB.wlan[0].radio symbolErrorRate:histogram:overflows 0
scalar HiddenNodeShowcase.hostB.app[0] endToEndDelay:histogram:count 1966
scalar HiddenNodeShowcase.hostB.app[0] endToEndDelay:histogram:sumweights 1966
scalar HiddenNodeShowcase.hostB.app[0] endToEndDelay:histogram:mean 0.0027597626725472642
scalar HiddenNodeShowcase.hostB.app[0] endToEndDelay:histogram:stddev 0.0019840962609358509
scalar HiddenNodeShowcase.hostB.app[0] endToEndDelay:histogram:min 0.0014507612569999999
scalar HiddenNodeShowcase.hostB.app[0] endToEndDelay:histogram:max 0.019477672254
scalar HiddenNodeShowcase.hostB.app[0] endToEndDelay:histogram:numbins 49
scalar HiddenNodeShowcase.hostB.app[0] endToEndDelay:histogram:rangemin 0.0001
scalar HiddenNodeShowcase.hostB.app[0] endToEndDelay:histogram:rangemax 0.019700000000000002
scalar HiddenNodeShowcase.hostB.app[0] endToEndDelay:histogram:underflows 0
scalar HiddenNodeShowcase.hostB.app[0] endToEndDelay:histogram:overflows 0
scalar HiddenNodeShowcase.hostC.wlan[0].mac.dcf.channelAccess.pendingQueue queueingTime:histogram:count 969
scalar HiddenNodeShowcase.hostC.wlan[0].mac.dcf.channelAccess.pendingQueue queueingTime:histogram:sumweights 969
scalar HiddenNodeShowcase.hostC.wlan[0].mac.dcf.channelAccess.pendingQueue queueingTime:histogram:mean 0.0011677611683684204
scalar HiddenNodeShowcase.hostC.wlan[0].mac.dcf.channelAccess.pendingQueue queueingTime:histogram:stddev 0.0014014039803330429
scalar HiddenNodeShowcase.hostC.wlan[0].mac.dcf.channelAccess.pendingQueue queueingTime:histogram:min 0
scalar HiddenNodeShowcase.hostC.wlan[0].mac.dcf.channelAccess.pendingQueue queueingTime:histogram:max 0.0089523352900000002
scalar HiddenNodeShowcase.hostC.wlan[0].mac.dcf.channelAccess.pendingQueue queueingTime:histogram:numbins 52
scalar HiddenNodeShowcase.hostC.wlan[0].mac.dcf.channelAccess.pendingQueue queueingTime:histogram:rangemin 0
scalar HiddenNodeShowcase.hostC.wlan[0].mac.dcf.channelAccess.pendingQueue queueingTime:histogram:rangemax 0.010400000000000001
scalar HiddenNodeShowcase.hostC.wlan[0].mac.dcf.channelAccess.pendingQueue queueingTime:histogram:underflows 0
scalar HiddenNodeShowcase.hostC.wlan[0].mac.dcf.channelAccess.pendingQueue queueingTime:histogram:overflows 0
scalar HiddenNodeShowcase.hostC.wlan[0].mac.dcf.channelAccess.pendingQueue outgoingPacketLengths:histogram:count 969
scalar HiddenNodeShowcase.hostC.wlan[0].mac.dcf.channelAccess.pendingQueue outgoingPacketLengths:histogram:sumweights 969
scalar HiddenNodeShowcase.hostC.wlan[0].mac.dcf.channelAccess.pendingQueue outgoingPacketLengths:histogram:mean 8512
scalar HiddenNodeShowcase.hostC.wlan[0].mac.dcf.channelAccess.pendingQueue outgoingPacketLengths:histogram:stddev 0
scalar HiddenNodeShowcase.hostC.wlan[0].mac.dcf.channelAccess.pendingQueue outgoingPacketLengths:histogram:min 8512
scalar HiddenNodeShowcase.hostC.wlan[0].mac.dcf.channelAccess.pendingQueue outgoingPacketLengths:histogram:max 8512
scalar HiddenNodeShowcase.hostC.wlan[0].mac.dcf.channelAccess.pendingQueue outgoingPacketLengths:histogram:numbins 2
scalar HiddenNodeShowcase.hostC.wlan[0].mac.dcf.channelAccess.pendingQueue outgoingPacketLengths:histogram:rangemin 8511
scalar HiddenNodeShowcase.hostC.wlan[0].mac.dcf.channelAccess.pendingQueue outgoingPacketLengths:histogram:rangemax 8513
scalar HiddenNodeShowcase.hostC.wlan[0].mac.dcf.channelAccess.pendingQueue outgoingPacketLengths:histogram:underflows 0
scalar HiddenNodeShowcase.hostC.wlan[0].mac.dcf.channelAccess.pendingQueue outgoingPacketLengths:histogram:overflows 0
scalar HiddenNodeShowcase.hostC.wlan[0].mac.dcf.channelAccess.pendingQueue flowQueueingTime:histogram:count 0
scalar HiddenNodeShowcase.hostC.wlan[0].mac.dcf.channelAccess.pendingQueue flowQueueingTime:histogram:sumweights 0
scalar HiddenNodeShowcase.hostC.wlan[0].mac.dcf.channelAccess.pendingQueue flowQueueingTime:histogram:mean -nan
scalar HiddenNodeShowcase.hostC.wlan[0].mac.dcf.channelAccess.pendingQueue flowQueueingTime:histogram:stddev nan
scalar HiddenNodeShowcase.hostC.wlan[0].mac.dcf.channelAccess.pendingQueue flowQueueingTime:histogram:min nan
scalar HiddenNodeShowcase.hostC.wlan[0].mac.dcf.channelAccess.pendingQueue flowQueueingTime:histogram:max nan
scalar HiddenNodeShowcase.hostC.wlan[0].mac.dcf.channelAccess.pendingQueue flowQueueingTime:histogram:numbins 1
scalar HiddenNodeShowcase.hostC.wlan[0].mac.dcf.channelAccess.pendingQueue flowQueueingTime:histogram:rangemin 0
scalar HiddenNodeShowcase.hostC.wlan[0].mac.dcf.channelAccess.pendingQueue flowQueueingTime:histogram:rangemax 1
scalar HiddenNodeShowcase.hostC.wlan[0].mac.dcf.channelAccess.pendingQueue flowQueueingTime:histogram:underflows 0
scalar HiddenNodeShowcase.hostC.wlan[0].mac.dcf.channelAccess.pendingQueue flowQueueingTime:histogram:overflows 0
scalar HiddenNodeShowcase.hostC.wlan[0].mac.dcf.channelAccess.pendingQueue incomingPacketLengths:histogram:count 969
scalar HiddenNodeShowcase.hostC.wlan[0].mac.dcf.channelAccess.pendingQueue incomingPacketLengths:histogram:sumweights 969
scalar HiddenNodeShowcase.hostC.wlan[0].mac.dcf.channelAccess.pendingQueue incomingPacketLengths:histogram:mean 8512
scalar HiddenNodeShowcase.hostC.wlan[0].mac.dcf.channelAccess.pendingQueue incomingPacketLengths:histogram:stddev 0
scalar HiddenNodeShowcase.hostC.wlan[0].mac.dcf.channelAccess.pendingQueue incomingPacketLengths:histogram:min 8512
scalar HiddenNodeShowcase.hostC.wlan[0].mac.dcf.channelAccess.pendingQueue incomingPacketLengths:histogram:max 8512
scalar HiddenNodeShowcase.hostC.wlan[0].mac.dcf.channelAccess.pendingQueue incomingPacketLengths:histogram:numbins 2
scalar HiddenNodeShowcase.hostC.wlan[0].mac.dcf.channelAccess.pendingQueue incomingPacketLengths:histogram:rangemin 8511
scalar HiddenNodeShowcase.hostC.wlan[0].mac.dcf.channelAccess.pendingQueue incomingPacketLengths:histogram:rangemax 8513
scalar HiddenNodeShowcase.hostC.wlan[0].mac.dcf.channelAccess.pendingQueue incomingPacketLengths:histogram:underflows 0
scalar HiddenNodeShowcase.hostC.wlan[0].mac.dcf.channelAccess.pendingQueue incomingPacketLengths:histogram:overflows 0
scalar HiddenNodeShowcase.hostC.wlan[0].mac.dcf.channelAccess.inProgressFrames queueingTime:histogram:count 967
scalar HiddenNodeShowcase.hostC.wlan[0].mac.dcf.channelAccess.inProgressFrames queueingTime:histogram:sumweights 967
scalar HiddenNodeShowcase.hostC.wlan[0].mac.dcf.channelAccess.inProgressFrames queueingTime:histogram:mean 0.0022173842066194778
scalar HiddenNodeShowcase.hostC.wlan[0].mac.dcf.channelAccess.inProgressFrames queueingTime:histogram:stddev 0.001453231672693866
scalar HiddenNodeShowcase.hostC.wlan[0].mac.dcf.channelAccess.inProgressFrames queueingTime:histogram:min 0.0015115225140000001
scalar HiddenNodeShowcase.hostC.wlan[0].mac.dcf.channelAccess.inProgressFrames queueingTime:histogram:max 0.012039549719999999
scalar HiddenNodeShowcase.hostC.wlan[0].mac.dcf.channelAccess.inProgressFrames queueingTime:histogram:numbins 61
scalar HiddenNodeShowcase.hostC.wlan[0].mac.dcf.channelAccess.inProgressFrames queueingTime:histogram:rangemin 0
scalar HiddenNodeShowcase.hostC.wlan[0].mac.dcf.channelAccess.inProgressFrames queueingTime:histogram:rangemax 0.012199999999999999
scalar HiddenNodeShowcase.hostC.wlan[0].mac.dcf.channelAccess.inProgressFrames queueingTime:histogram:underflows 0
scalar HiddenNodeShowcase.hostC.wlan[0].mac.dcf.channelAccess.inProgressFrames queueingTime:histogram:overflows 0
scalar HiddenNodeShowcase.hostC.wlan[0].mac.dcf frameSequenceDuration:histogram:count 986
scalar HiddenNodeShowcase.hostC.wlan[0].mac.dcf frameSequenceDuration:histogram:sumweights 986
scalar HiddenNodeShowcase.hostC.wlan[0].mac.dcf frameSequenceDuration:histogram:mean 0.0015113968266105807
scalar HiddenNodeShowcase.hostC.wlan[0].mac.dcf frameSequenceDuration:histogram:stddev 8.9711567654711569e-07
scalar HiddenNodeShowcase.hostC.wlan[0].mac.dcf frameSequenceDuration:histogram:min 0.001505
scalar HiddenNodeShowcase.hostC.wlan[0].mac.dcf frameSequenceDuration:histogram:max 0.0015115225140000001
scalar HiddenNodeShowcase.hostC.wlan[0].mac.dcf frameSequenceDuration:histogram:numbins 51
scalar HiddenNodeShowcase.hostC.wlan[0].mac.dcf frameSequenceDuration:histogram:rangemin 0
scalar HiddenNodeShowcase.hostC.wlan[0].mac.dcf frameSequenceDuration:histogram:rangemax 0.51000000000000001
scalar HiddenNodeShowcase.hostC.wlan[0].mac.dcf frameSequenceDuration:histogram:underflows 0
scalar HiddenNodeShowcase.hostC.wlan[0].mac.dcf frameSequenceDuration:histogram:overflows 0
scalar HiddenNodeShowcase.hostC.wlan[0].mac.dcf frameSequenceNumPackets:histogram:count 986
scalar HiddenNodeShowcase.hostC.wlan[0].mac.dcf frameSequenceNumPackets:histogram:sumweights 986
scalar HiddenNodeShowcase.hostC.wlan[0].mac.dcf frameSequenceNumPackets:histogram:mean 2
scalar HiddenNodeShowcase.hostC.wlan[0].mac.dcf frameSequenceNumPackets:histogram:stddev 0
scalar HiddenNodeShowcase.hostC.wlan[0].mac.dcf frameSequenceNumPackets:histogram:min 2
scalar HiddenNodeShowcase.hostC.wlan[0].mac.dcf frameSequenceNumPackets:histogram:max 2
scalar HiddenNodeShowcase.hostC.wlan[0].mac.dcf frameSequenceNumPackets:histogram:numbins 2
scalar HiddenNodeShowcase.hostC.wlan[0].mac.dcf frameSequenceNumPackets:histogram:rangemin 1
scalar HiddenNodeShowcase.hostC.wlan[0].mac.dcf frameSequenceNumPackets:histogram:rangemax 3
scalar HiddenNodeShowcase.hostC.wlan[0].mac.dcf frameSequenceNumPackets:histogram:underflows 0
scalar HiddenNodeShowcase.hostC.wlan[0].mac.dcf frameSequenceNumPackets:histogram:overflows 0
scalar HiddenNodeShowcase.hostC.wlan[0].radio radioChannel:histogram:count 1
scalar HiddenNodeShowcase.hostC.wlan[0].radio radioChannel:histogram:sumweights 1
scalar HiddenNodeShowcase.hostC.wlan[0].radio radioChannel:histogram:mean 0
scalar HiddenNodeShowcase.hostC.wlan[0].radio radioChannel:histogram:stddev nan
scalar HiddenNodeShowcase.hostC.wlan[0].radio radioChannel:histogram:min 0
scalar HiddenNodeShowcase.hostC.wlan[0].radio radioChannel:histogram:max 0
scalar HiddenNodeShowcase.hostC.wlan[0].radio radioChannel:histogram:numbins 50
scalar HiddenNodeShowcase.hostC.wlan[0].radio radioChannel:histogram:rangemin -0.5
scalar HiddenNodeShowcase.hostC.wlan[0].radio radioChannel:histogram:rangemax 0.5
scalar HiddenNodeShowcase.hostC.wlan[0].radio radioChannel:histogram:underflows 0
scalar HiddenNodeShowcase.hostC.wlan[0].radio radioChannel:histogram:overflows 0
scalar HiddenNodeShowcase.hostC.wlan[0].radio minSnir:histogram:count 2965
scalar HiddenNodeShowcase.hostC.wlan[0].radio minSnir:histogram:sumweights 2965
scalar HiddenNodeShowcase.hostC.wlan[0].radio minSnir:histogram:mean inf
scalar HiddenNodeShowcase.hostC.wlan[0].radio minSnir:histogram:stddev 0
scalar HiddenNodeShowcase.hostC.wlan[0].radio minSnir:histogram:min inf
scalar HiddenNodeShowcase.hostC.wlan[0].radio minSnir:histogram:max inf
scalar HiddenNodeShowcase.hostC.wlan[0].radio minSnir:histogram:numbins 1
scalar HiddenNodeShowcase.hostC.wlan[0].radio minSnir:histogram:rangemin 0
scalar HiddenNodeShowcase.hostC.wlan[0].radio minSnir:histogram:rangemax 1
scalar HiddenNodeShowcase.hostC.wlan[0].radio minSnir:histogram:underflows 0
scalar HiddenNodeShowcase.hostC.wlan[0].radio minSnir:histogram:overflows 2965
scalar HiddenNodeShowcase.hostC.wlan[0].radio packetErrorRate:histogram:count 2965
scalar HiddenNodeShowcase.hostC.wlan[0].radio packetErrorRate:histogram:sumweights 2965
scalar HiddenNodeShowcase.hostC.wlan[0].radio packetErrorRate:histogram:mean 0
scalar HiddenNodeShowcase.hostC.wlan[0].radio packetErrorRate:histogram:stddev 0
scalar HiddenNodeShowcase.hostC.wlan[0].radio packetErrorRate:histogram:min 0
scalar HiddenNodeShowcase.hostC.wlan[0].radio packetErrorRate:histogram:max 0
scalar HiddenNodeShowcase.hostC.wlan[0].radio packetErrorRate:histogram:numbins 50
scalar HiddenNodeShowcase.hostC.wlan[0].radio packetErrorRate:histogram:rangemin -0.5
scalar HiddenNodeShowcase.hostC.wlan[0].radio packetErrorRate:histogram:rangemax 0.5
scalar HiddenNodeShowcase.hostC.wlan[0].radio packetErrorRate:histogram:underflows 0
scalar HiddenNodeShowcase.hostC.wlan[0].radio packetErrorRate:histogram:overflows 0
scalar HiddenNodeShowcase.hostC.wlan[0].radio bitErrorRate:histogram:count 2965
scalar HiddenNodeShowcase.hostC.wlan[0].radio bitErrorRate:histogram:sumweights 2965
scalar HiddenNodeShowcase.hostC.wlan[0].radio bitErrorRate:histogram:mean 0
scalar HiddenNodeShowcase.hostC.wlan[0].radio bitErrorRate:histogram:stddev 0
scalar HiddenNodeShowcase.hostC.wlan[0].radio bitErrorRate:histogram:min 0
scalar HiddenNodeShowcase.hostC.wlan[0].radio bitErrorRate:histogram:max 0
scalar HiddenNodeShowcase.hostC.wlan[0].radio bitErrorRate:histogram:numbins 50
scalar HiddenNodeShowcase.hostC.wlan[0].radio bitErrorRate:histogram:rangemin -0.5
scalar HiddenNodeShowcase.hostC.wlan[0].radio bitErrorRate:histogram:rangemax 0.5
scalar HiddenNodeShowcase.hostC.wlan[0].radio bitErrorRate:histogram:underflows 0
scalar HiddenNodeShowcase.hostC.wlan[0].radio bitErrorRate:histogram:overflows 0
scalar HiddenNodeShowcase.hostC.wlan[0].radio symbolErrorRate:histogram:count 2965
scalar HiddenNodeShowcase.hostC.wlan[0].radio symbolErrorRate:histogram:sumweights 2965
scalar HiddenNodeShowcase.hostC.wlan[0].radio symbolErrorRate:histogram:mean 0
scalar HiddenNodeShowcase.hostC.wlan[0].radio symbolErrorRate:histogram:stddev 0
scalar HiddenNodeShowcase.hostC.wlan[0].radio symbolErrorRate:histogram:min 0
scalar HiddenNodeShowcase.hostC.wlan[0].radio symbolErrorRate:histogram:max 0
scalar HiddenNodeShowcase.hostC.wlan[0].radio symbolErrorRate:histogram:numbins 50
scalar HiddenNodeShowcase.hostC.wlan[0].radio symbolErrorRate:histogram:rangemin -0.5
scalar HiddenNodeShowcase.hostC.wlan[0].radio symbolErrorRate:histogram:rangemax 0.5
scalar HiddenNodeShowcase.hostC.wlan[0].radio symbolErrorRate:histogram:underflows 0
scalar HiddenNodeShowcase.hostC.wlan[0].radio symbolErrorRate:histogram:overflows 0
statistic HiddenNodeShowcase.hostA.app[0] rcvdPkLifetime:stats
field count 0
field mean -nan
field stddev nan
field min nan
field max nan
field sum 0
field sqrsum 0
statistic HiddenNodeShowcase.hostC.app[0] rcvdPkLifetime:stats
field count 0
field mean -nan
field stddev nan
field min nan
field max nan
field sum 0
field sqrsum 0
statistic HiddenNodeShowcase.hostA.wlan[0].mac.dcf.channelAccess.pendingQueue queueingTime:histogram
field count 999
field mean 0.0006642375569469466
field stddev 0.0010383650983313069
field min 0
field max 0.007285310693
field sum 0.66357331938999964
field sqrsum 0.0015168159938045089
bin	-inf	0
bin	0	541
bin	0.0001	16
bin	0.00020000000000000001	21
bin	0.00030000000000000003	22
bin	0.00040000000000000002	21
bin	0.00050000000000000001	21
bin	0.00060000000000000006	28
bin	0.00069999999999999999	27
bin	0.00080000000000000004	21
bin	0.00090000000000000008	23
bin	0.001	18
bin	0.0011000000000000001	17
bin	0.0012000000000000001	25
bin	0.0013000000000000002	13
bin	0.0014	14
bin	0.0015	15
bin	0.0016000000000000001	16
bin	0.0017000000000000001	16
bin	0.0018000000000000002	5
bin	0.0019	7
bin	0.002	8
bin	0.0021000000000000003	7
bin	0.0022000000000000001	10
bin	0.0023	6
bin	0.0024000000000000002	5
bin	0.0025000000000000001	9
bin	0.0026000000000000003	5
bin	0.0027000000000000001	5
bin	0.0028	5
bin	0.0029000000000000002	11
bin	0.0030000000000000001	1
bin	0.0031000000000000003	4
bin	0.0032000000000000002	5
bin	0.0033	5
bin	0.0034000000000000002	3
bin	0.0035000000000000001	0
bin	0.0036000000000000003	4
bin	0.0037000000000000002	1
bin	0.0038	2
bin	0.0039000000000000003	0
bin	0.0040000000000000001	1
bin	0.0041000000000000003	0
bin	0.0042000000000000006	1
bin	0.0043	2
bin	0.0044000000000000003	1
bin	0.0045000000000000005	0
bin	0.0045999999999999999	1
bin	0.0047000000000000002	4
bin	0.0048000000000000004	1
bin	0.0049000000000000007	2
bin	0.0050000000000000001	0
bin	0.0051000000000000004	0
bin	0.0052000000000000006	0
bin	0.0053000000000000009	0
bin	0.0054000000000000003	1
bin	0.0055000000000000005	0
bin	0.0056000000000000008	0
bin	0.0057000000000000002	0
bin	0.0058000000000000005	0
bin	0.0059000000000000007	1
bin	0.0060000000000000001	0
bin	0.0061000000000000004	0
bin	0.0062000000000000006	0
bin	0.0063000000000000009	0
bin	0.0064000000000000003	0
bin	0.0065000000000000006	0
bin	0.0066000000000000008	0
bin	0.0067000000000000011	0
bin	0.0068000000000000005	0
bin	0.0069000000000000008	0
bin	0.007000000000000001	0
bin	0.0071000000000000004	0
bin	0.0072000000000000007	1
bin	0.0073000000000000009	0
statistic HiddenNodeShowcase.hostA.wlan[0].mac.dcf.channelAccess.pendingQueue outgoingPacketLengths:histogram
field count 999
field mean 8512
field stddev 0
field min 8512
field max 8512
field sum 8503488
field sqrsum 72381689856
bin	-inf	0
bin	8511	0
bin	8512	999
bin	8513	0
statistic HiddenNodeShowcase.hostA.wlan[0].mac.dcf.channelAccess.pendingQueue flowQueueingTime:histogram
field count 0
field mean -nan
field stddev nan
field min nan
field max nan
field sum 0
field sqrsum 0
bin	-inf	0
bin	0	0
bin	1	0
statistic HiddenNodeShowcase.hostA.wlan[0].mac.dcf.channelAccess.pendingQueue incomingPacketLengths:histogram
field count 1000
field mean 8512
field stddev 0
field min 8512
field max 8512
field sum 8512000
field sqrsum 72454144000
bin	-inf	0
bin	8511	0
bin	8512	1000
bin	8513	0
statistic HiddenNodeShowcase.hostA.wlan[0].mac.dcf.channelAccess.inProgressFrames queueingTime:histogram
field count 999
field mean 0.0016126138482963346
field stddev 0.00068213089313317568
field min 0.0015115225140000001
field max 0.012019135084
field sum 1.6110012344480382
field sqrsum 0.0030622948505493273
bin	-inf	0
bin	0	998
bin	0.01	1
bin	0.02	0
bin	0.029999999999999999	0
bin	0.040000000000000001	0
bin	0.050000000000000003	0
bin	0.059999999999999998	0
bin	0.070000000000000007	0
bin	0.080000000000000002	0
bin	0.089999999999999997	0
bin	0.10000000000000001	0
bin	0.11	0
bin	0.12	0
bin	0.13	0
bin	0.14000000000000001	0
bin	0.14999999999999999	0
bin	0.16	0
bin	0.17000000000000001	0
bin	0.17999999999999999	0
bin	0.19	0
bin	0.20000000000000001	0
bin	0.20999999999999999	0
bin	0.22	0
bin	0.23000000000000001	0
bin	0.23999999999999999	0
bin	0.25	0
bin	0.26000000000000001	0
bin	0.27000000000000002	0
bin	0.28000000000000003	0
bin	0.28999999999999998	0
bin	0.29999999999999999	0
bin	0.31	0
bin	0.32000000000000001	0
bin	0.33000000000000002	0
bin	0.34000000000000002	0
bin	0.35000000000000003	0
bin	0.35999999999999999	0
bin	0.37	0
bin	0.38	0
bin	0.39000000000000001	0
bin	0.40000000000000002	0
bin	0.41000000000000003	0
bin	0.41999999999999998	0
bin	0.42999999999999999	0
bin	0.44	0
bin	0.45000000000000001	0
bin	0.46000000000000002	0
bin	0.47000000000000003	0
bin	0.47999999999999998	0
bin	0.48999999999999999	0
bin	0.5	0
bin	0.51000000000000001	0
statistic HiddenNodeShowcase.hostA.wlan[0].mac.dcf frameSequenceDuration:histogram
field count 1018
[...]
scalar HiddenNodeShowcase.hostC.wlan[0].mac packetDropDuplicateDetected:vector(packetBytes):sum 0
scalar HiddenNodeShowcase.hostC.wlan[0].mac packetDropDuplicateDetected:vector(packetBytes):sumweights 0
scalar HiddenNodeShowcase.hostC.wlan[0].mac packetDropDuplicateDetected:vector(packetBytes):mean -nan
scalar HiddenNodeShowcase.hostC.wlan[0].mac packetDropDuplicateDetected:vector(packetBytes):stddev nan
scalar HiddenNodeShowcase.hostC.wlan[0].mac packetDropDuplicateDetected:vector(packetBytes):min inf
scalar HiddenNodeShowcase.hostC.wlan[0].mac packetDropDuplicateDetected:vector(packetBytes):max -inf
scalar HiddenNodeShowcase.hostC.wlan[0].mac packetDropDuplicateDetected:vector(packetBytes):starttime nan
scalar HiddenNodeShowcase.hostC.wlan[0].mac packetDropDuplicateDetected:vector(packetBytes):endtime nan
scalar HiddenNodeShowcase.hostC.wlan[0].mac packetDropOther:vector(packetBytes):count 0
scalar HiddenNodeShowcase.hostC.wlan[0].mac packetDropOther:vector(packetBytes):sum 0
scalar HiddenNodeShowcase.hostC.wlan[0].mac packetDropOther:vector(packetBytes):sumweights 0
scalar HiddenNodeShowcase.hostC.wlan[0].mac packetDropOther:vector(packetBytes):mean -nan
scalar HiddenNodeShowcase.hostC.wlan[0].mac packetDropOther:vector(packetBytes):stddev nan
scalar HiddenNodeShowcase.hostC.wlan[0].mac packetDropOther:vector(packetBytes):min inf
scalar HiddenNodeShowcase.hostC.wlan[0].mac packetDropOther:vector(packetBytes):max -inf
scalar HiddenNodeShowcase.hostC.wlan[0].mac packetDropOther:vector(packetBytes):starttime nan
scalar HiddenNodeShowcase.hostC.wlan[0].mac packetDropOther:vector(packetBytes):endtime nan
scalar HiddenNodeShowcase.hostC.wlan[0].radio radioMode:vector:count 1976
scalar HiddenNodeShowcase.hostC.wlan[0].radio radioMode:vector:sum 4935
scalar HiddenNodeShowcase.hostC.wlan[0].radio radioMode:vector:sumweights 1976
scalar HiddenNodeShowcase.hostC.wlan[0].radio radioMode:vector:mean 2.4974696356275303
scalar HiddenNodeShowcase.hostC.wlan[0].radio radioMode:vector:stddev 0.50615820220541385
scalar HiddenNodeShowcase.hostC.wlan[0].radio radioMode:vector:min 0
scalar HiddenNodeShowcase.hostC.wlan[0].radio radioMode:vector:max 3
scalar HiddenNodeShowcase.hostC.wlan[0].radio radioMode:vector:starttime 0
scalar HiddenNodeShowcase.hostC.wlan[0].radio radioMode:vector:endtime 4.9990321801120006
scalar HiddenNodeShowcase.hostC.wlan[0].radio receptionState:vector:count 7923
scalar HiddenNodeShowcase.hostC.wlan[0].radio receptionState:vector:sum 12885
scalar HiddenNodeShowcase.hostC.wlan[0].radio receptionState:vector:sumweights 7923
scalar HiddenNodeShowcase.hostC.wlan[0].radio receptionState:vector:mean 1.6262779250283983
scalar HiddenNodeShowcase.hostC.wlan[0].radio receptionState:vector:stddev 1.1098699369527099
scalar HiddenNodeShowcase.hostC.wlan[0].radio receptionState:vector:min 0
scalar HiddenNodeShowcase.hostC.wlan[0].radio receptionState:vector:max 3
scalar HiddenNodeShowcase.hostC.wlan[0].radio receptionState:vector:starttime 0
scalar HiddenNodeShowcase.hostC.wlan[0].radio receptionState:vector:endtime 4.9990321801120006
scalar HiddenNodeShowcase.hostC.wlan[0].radio transmissionState:vector:count 3946
scalar HiddenNodeShowcase.hostC.wlan[0].radio transmissionState:vector:sum 3947
scalar HiddenNodeShowcase.hostC.wlan[0].radio transmissionState:vector:sumweights 3946
scalar HiddenNodeShowcase.hostC.wlan[0].radio transmissionState:vector:mean 1.0002534211860112
scalar HiddenNodeShowcase.hostC.wlan[0].radio transmissionState:vector:stddev 0.70719635072143661
scalar HiddenNodeShowcase.hostC.wlan[0].radio transmissionState:vector:min 0
scalar HiddenNodeShowcase.hostC.wlan[0].radio transmissionState:vector:max 2
scalar HiddenNodeShowcase.hostC.wlan[0].radio transmissionState:vector:starttime 0.0048850321320000013
scalar HiddenNodeShowcase.hostC.wlan[0].radio transmissionState:vector:endtime 4.9990321801120006
scalar HiddenNodeShowcase.hostC.wlan[0].radio radioChannel:vector:count 1
scalar HiddenNodeShowcase.hostC.wlan[0].radio radioChannel:vector:sum 0
scalar HiddenNodeShowcase.hostC.wlan[0].radio radioChannel:vector:sumweights 1
scalar HiddenNodeShowcase.hostC.wlan[0].radio radioChannel:vector:mean 0
scalar HiddenNodeShowcase.hostC.wlan[0].radio radioChannel:vector:stddev nan
scalar HiddenNodeShowcase.hostC.wlan[0].radio radioChannel:vector:min 0
scalar HiddenNodeShowcase.hostC.wlan[0].radio radioChannel:vector:max 0
scalar HiddenNodeShowcase.hostC.wlan[0].radio radioChannel:vector:starttime 0
scalar HiddenNodeShowcase.hostC.wlan[0].radio radioChannel:vector:endtime 0
scalar HiddenNodeShowcase.hostC.wlan[0] packetDropInterfaceDown:vector(packetBytes):count 0
scalar HiddenNodeShowcase.hostC.wlan[0] packetDropInterfaceDown:vector(packetBytes):sum 0
scalar HiddenNodeShowcase.hostC.wlan[0] packetDropInterfaceDown:vector(packetBytes):sumweights 0
scalar HiddenNodeShowcase.hostC.wlan[0] packetDropInterfaceDown:vector(packetBytes):mean -nan
scalar HiddenNodeShowcase.hostC.wlan[0] packetDropInterfaceDown:vector(packetBytes):stddev nan
scalar HiddenNodeShowcase.hostC.wlan[0] packetDropInterfaceDown:vector(packetBytes):min inf
scalar HiddenNodeShowcase.hostC.wlan[0] packetDropInterfaceDown:vector(packetBytes):max -inf
scalar HiddenNodeShowcase.hostC.wlan[0] packetDropInterfaceDown:vector(packetBytes):starttime nan
scalar HiddenNodeShowcase.hostC.wlan[0] packetDropInterfaceDown:vector(packetBytes):endtime nan
scalar HiddenNodeShowcase.hostC.wlan[0] packetDropNoCarrier:vector(packetBytes):count 0
scalar HiddenNodeShowcase.hostC.wlan[0] packetDropNoCarrier:vector(packetBytes):sum 0
scalar HiddenNodeShowcase.hostC.wlan[0] packetDropNoCarrier:vector(packetBytes):sumweights 0
scalar HiddenNodeShowcase.hostC.wlan[0] packetDropNoCarrier:vector(packetBytes):mean -nan
scalar HiddenNodeShowcase.hostC.wlan[0] packetDropNoCarrier:vector(packetBytes):stddev nan
scalar HiddenNodeShowcase.hostC.wlan[0] packetDropNoCarrier:vector(packetBytes):min inf
scalar HiddenNodeShowcase.hostC.wlan[0] packetDropNoCarrier:vector(packetBytes):max -inf
scalar HiddenNodeShowcase.hostC.wlan[0] packetDropNoCarrier:vector(packetBytes):starttime nan
scalar HiddenNodeShowcase.hostC.wlan[0] packetDropNoCarrier:vector(packetBytes):endtime nan
scalar HiddenNodeShowcase.hostC.ipv4.ip packetDropAddressResolutionFailed:vector(packetBytes):count 0
scalar HiddenNodeShowcase.hostC.ipv4.ip packetDropAddressResolutionFailed:vector(packetBytes):sum 0
scalar HiddenNodeShowcase.hostC.ipv4.ip packetDropAddressResolutionFailed:vector(packetBytes):sumweights 0
scalar HiddenNodeShowcase.hostC.ipv4.ip packetDropAddressResolutionFailed:vector(packetBytes):mean -nan
scalar HiddenNodeShowcase.hostC.ipv4.ip packetDropAddressResolutionFailed:vector(packetBytes):stddev nan
scalar HiddenNodeShowcase.hostC.ipv4.ip packetDropAddressResolutionFailed:vector(packetBytes):min inf
scalar HiddenNodeShowcase.hostC.ipv4.ip packetDropAddressResolutionFailed:vector(packetBytes):max -inf
scalar HiddenNodeShowcase.hostC.ipv4.ip packetDropAddressResolutionFailed:vector(packetBytes):starttime nan
scalar HiddenNodeShowcase.hostC.ipv4.ip packetDropAddressResolutionFailed:vector(packetBytes):endtime nan
scalar HiddenNodeShowcase.hostC.ipv4.ip packetDropHopLimitReached:vector(packetBytes):count 0
scalar HiddenNodeShowcase.hostC.ipv4.ip packetDropHopLimitReached:vector(packetBytes):sum 0
scalar HiddenNodeShowcase.hostC.ipv4.ip packetDropHopLimitReached:vector(packetBytes):sumweights 0
scalar HiddenNodeShowcase.hostC.ipv4.ip packetDropHopLimitReached:vector(packetBytes):mean -nan
scalar HiddenNodeShowcase.hostC.ipv4.ip packetDropHopLimitReached:vector(packetBytes):stddev nan
scalar HiddenNodeShowcase.hostC.ipv4.ip packetDropHopLimitReached:vector(packetBytes):min inf
scalar HiddenNodeShowcase.hostC.ipv4.ip packetDropHopLimitReached:vector(packetBytes):max -inf
scalar HiddenNodeShowcase.hostC.ipv4.ip packetDropHopLimitReached:vector(packetBytes):starttime nan
scalar HiddenNodeShowcase.hostC.ipv4.ip packetDropHopLimitReached:vector(packetBytes):endtime nan
scalar HiddenNodeShowcase.hostC.ipv4.ip packetDropForwardingDisabled:vector(packetBytes):count 0
scalar HiddenNodeShowcase.hostC.ipv4.ip packetDropForwardingDisabled:vector(packetBytes):sum 0
scalar HiddenNodeShowcase.hostC.ipv4.ip packetDropForwardingDisabled:vector(packetBytes):sumweights 0
scalar HiddenNodeShowcase.hostC.ipv4.ip packetDropForwardingDisabled:vector(packetBytes):mean -nan
scalar HiddenNodeShowcase.hostC.ipv4.ip packetDropForwardingDisabled:vector(packetBytes):stddev nan
scalar HiddenNodeShowcase.hostC.ipv4.ip packetDropForwardingDisabled:vector(packetBytes):min inf
scalar HiddenNodeShowcase.hostC.ipv4.ip packetDropForwardingDisabled:vector(packetBytes):max -inf
scalar HiddenNodeShowcase.hostC.ipv4.ip packetDropForwardingDisabled:vector(packetBytes):starttime nan
scalar HiddenNodeShowcase.hostC.ipv4.ip packetDropForwardingDisabled:vector(packetBytes):endtime nan
scalar HiddenNodeShowcase.hostC.ipv4.ip packetDropLifetimeExpired:vector(packetBytes):count 0
scalar HiddenNodeShowcase.hostC.ipv4.ip packetDropLifetimeExpired:vector(packetBytes):sum 0
scalar HiddenNodeShowcase.hostC.ipv4.ip packetDropLifetimeExpired:vector(packetBytes):sumweights 0
scalar HiddenNodeShowcase.hostC.ipv4.ip packetDropLifetimeExpired:vector(packetBytes):mean -nan
scalar HiddenNodeShowcase.hostC.ipv4.ip packetDropLifetimeExpired:vector(packetBytes):stddev nan
scalar HiddenNodeShowcase.hostC.ipv4.ip packetDropLifetimeExpired:vector(packetBytes):min inf
scalar HiddenNodeShowcase.hostC.ipv4.ip packetDropLifetimeExpired:vector(packetBytes):max -inf
scalar HiddenNodeShowcase.hostC.ipv4.ip packetDropLifetimeExpired:vector(packetBytes):starttime nan
scalar HiddenNodeShowcase.hostC.ipv4.ip packetDropLifetimeExpired:vector(packetBytes):endtime nan
scalar HiddenNodeShowcase.hostC.ipv4.ip packetDropNoInterfaceFound:vector(packetBytes):count 0
scalar HiddenNodeShowcase.hostC.ipv4.ip packetDropNoInterfaceFound:vector(packetBytes):sum 0
scalar HiddenNodeShowcase.hostC.ipv4.ip packetDropNoInterfaceFound:vector(packetBytes):sumweights 0
scalar HiddenNodeShowcase.hostC.ipv4.ip packetDropNoInterfaceFound:vector(packetBytes):mean -nan
scalar HiddenNodeShowcase.hostC.ipv4.ip packetDropNoInterfaceFound:vector(packetBytes):stddev nan
scalar HiddenNodeShowcase.hostC.ipv4.ip packetDropNoInterfaceFound:vector(packetBytes):min inf
scalar HiddenNodeShowcase.hostC.ipv4.ip packetDropNoInterfaceFound:vector(packetBytes):max -inf
scalar HiddenNodeShowcase.hostC.ipv4.ip packetDropNoInterfaceFound:vector(packetBytes):starttime nan
scalar HiddenNodeShowcase.hostC.ipv4.ip packetDropNoInterfaceFound:vector(packetBytes):endtime nan
scalar HiddenNodeShowcase.hostC.ipv4.ip packetDropNoRouteFound:vector(packetBytes):count 0
scalar HiddenNodeShowcase.hostC.ipv4.ip packetDropNoRouteFound:vector(packetBytes):sum 0
scalar HiddenNodeShowcase.hostC.ipv4.ip packetDropNoRouteFound:vector(packetBytes):sumweights 0
scalar HiddenNodeShowcase.hostC.ipv4.ip packetDropNoRouteFound:vector(packetBytes):mean -nan
scalar HiddenNodeShowcase.hostC.ipv4.ip packetDropNoRouteFound:vector(packetBytes):stddev nan
scalar HiddenNodeShowcase.hostC.ipv4.ip packetDropNoRouteFound:vector(packetBytes):min inf
scalar HiddenNodeShowcase.hostC.ipv4.ip packetDropNoRouteFound:vector(packetBytes):max -inf
scalar HiddenNodeShowcase.hostC.ipv4.ip packetDropNoRouteFound:vector(packetBytes):starttime nan
scalar HiddenNodeShowcase.hostC.ipv4.ip packetDropNoRouteFound:vector(packetBytes):endtime nan
scalar HiddenNodeShowcase.hostC.ipv4.ip packetDropUndefined:vector(packetBytes):count 0
scalar HiddenNodeShowcase.hostC.ipv4.ip packetDropUndefined:vector(packetBytes):sum 0
scalar HiddenNodeShowcase.hostC.ipv4.ip packetDropUndefined:vector(packetBytes):sumweights 0
scalar HiddenNodeShowcase.hostC.ipv4.ip packetDropUndefined:vector(packetBytes):mean -nan
scalar HiddenNodeShowcase.hostC.ipv4.ip packetDropUndefined:vector(packetBytes):stddev nan
scalar HiddenNodeShowcase.hostC.ipv4.ip packetDropUndefined:vector(packetBytes):min inf
scalar HiddenNodeShowcase.hostC.ipv4.ip packetDropUndefined:vector(packetBytes):max -inf
scalar HiddenNodeShowcase.hostC.ipv4.ip packetDropUndefined:vector(packetBytes):starttime nan
scalar HiddenNodeShowcase.hostC.ipv4.ip packetDropUndefined:vector(packetBytes):endtime nan
scalar HiddenNodeShowcase.hostC.udp packetSent:vector(packetBytes):count 969
scalar HiddenNodeShowcase.hostC.udp packetSent:vector(packetBytes):sum 976752
scalar HiddenNodeShowcase.hostC.udp packetSent:vector(packetBytes):sumweights 969
scalar HiddenNodeShowcase.hostC.udp packetSent:vector(packetBytes):mean 1008
scalar HiddenNodeShowcase.hostC.udp packetSent:vector(packetBytes):stddev 0
scalar HiddenNodeShowcase.hostC.udp packetSent:vector(packetBytes):min 1008
scalar HiddenNodeShowcase.hostC.udp packetSent:vector(packetBytes):max 1008
scalar HiddenNodeShowcase.hostC.udp packetSent:vector(packetBytes):starttime 0.0048850321320000013
scalar HiddenNodeShowcase.hostC.udp packetSent:vector(packetBytes):endtime 4.9964966823020012
scalar HiddenNodeShowcase.hostC.udp outgoingDataRate:vector:count 50
scalar HiddenNodeShowcase.hostC.udp outgoingDataRate:vector:sum 78140160.000000015
scalar HiddenNodeShowcase.hostC.udp outgoingDataRate:vector:sumweights 50
scalar HiddenNodeShowcase.hostC.udp outgoingDataRate:vector:mean 1562803.2000000002
scalar HiddenNodeShowcase.hostC.udp outgoingDataRate:vector:stddev 306046.31367163919
scalar HiddenNodeShowcase.hostC.udp outgoingDataRate:vector:min 887040.00000000012
scalar HiddenNodeShowcase.hostC.udp outgoingDataRate:vector:max 2257920
scalar HiddenNodeShowcase.hostC.udp outgoingDataRate:vector:starttime 0.10000000000000001
scalar HiddenNodeShowcase.hostC.udp outgoingDataRate:vector:endtime 5
scalar HiddenNodeShowcase.hostC.udp packetReceived:vector(packetBytes):count 0
scalar HiddenNodeShowcase.hostC.udp packetReceived:vector(packetBytes):sum 0
scalar HiddenNodeShowcase.hostC.udp packetReceived:vector(packetBytes):sumweights 0
scalar HiddenNodeShowcase.hostC.udp packetReceived:vector(packetBytes):mean -nan
scalar HiddenNodeShowcase.hostC.udp packetReceived:vector(packetBytes):stddev nan
scalar HiddenNodeShowcase.hostC.udp packetReceived:vector(packetBytes):min inf
scalar HiddenNodeShowcase.hostC.udp packetReceived:vector(packetBytes):max -inf
scalar HiddenNodeShowcase.hostC.udp packetReceived:vector(packetBytes):starttime nan
scalar HiddenNodeShowcase.hostC.udp packetReceived:vector(packetBytes):endtime nan
scalar HiddenNodeShowcase.hostC.udp passedUpPk:vector(count):count 1
scalar HiddenNodeShowcase.hostC.udp passedUpPk:vector(count):sum 0
scalar HiddenNodeShowcase.hostC.udp passedUpPk:vector(count):sumweights 1
scalar HiddenNodeShowcase.hostC.udp passedUpPk:vector(count):mean 0
scalar HiddenNodeShowcase.hostC.udp passedUpPk:vector(count):stddev nan
scalar HiddenNodeShowcase.hostC.udp passedUpPk:vector(count):min 0
scalar HiddenNodeShowcase.hostC.udp passedUpPk:vector(count):max 0
scalar HiddenNodeShowcase.hostC.udp passedUpPk:vector(count):starttime 0
scalar HiddenNodeShowcase.hostC.udp passedUpPk:vector(count):endtime 0
scalar HiddenNodeShowcase.hostC.udp droppedPkWrongPort:vector(count):count 1
scalar HiddenNodeShowcase.hostC.udp droppedPkWrongPort:vector(count):sum 0
scalar HiddenNodeShowcase.hostC.udp droppedPkWrongPort:vector(count):sumweights 1
scalar HiddenNodeShowcase.hostC.udp droppedPkWrongPort:vector(count):mean 0
scalar HiddenNodeShowcase.hostC.udp droppedPkWrongPort:vector(count):stddev nan
scalar HiddenNodeShowcase.hostC.udp droppedPkWrongPort:vector(count):min 0
scalar HiddenNodeShowcase.hostC.udp droppedPkWrongPort:vector(count):max 0
scalar HiddenNodeShowcase.hostC.udp droppedPkWrongPort:vector(count):starttime 0
scalar HiddenNodeShowcase.hostC.udp droppedPkWrongPort:vector(count):endtime 0
scalar HiddenNodeShowcase.hostC.udp droppedPkBadChecksum:vector(count):count 1
scalar HiddenNodeShowcase.hostC.udp droppedPkBadChecksum:vector(count):sum 0
scalar HiddenNodeShowcase.hostC.udp droppedPkBadChecksum:vector(count):sumweights 1
scalar HiddenNodeShowcase.hostC.udp droppedPkBadChecksum:vector(count):mean 0
scalar HiddenNodeShowcase.hostC.udp droppedPkBadChecksum:vector(count):stddev nan
scalar HiddenNodeShowcase.hostC.udp droppedPkBadChecksum:vector(count):min 0
scalar HiddenNodeShowcase.hostC.udp droppedPkBadChecksum:vector(count):max 0
scalar HiddenNodeShowcase.hostC.udp droppedPkBadChecksum:vector(count):starttime 0
scalar HiddenNodeShowcase.hostC.udp droppedPkBadChecksum:vector(count):endtime 0
scalar HiddenNodeShowcase.hostC.app[0] packetReceived:vector(packetBytes):count 0
scalar HiddenNodeShowcase.hostC.app[0] packetReceived:vector(packetBytes):sum 0
scalar HiddenNodeShowcase.hostC.app[0] packetReceived:vector(packetBytes):sumweights 0
scalar HiddenNodeShowcase.hostC.app[0] packetReceived:vector(packetBytes):mean -nan
scalar HiddenNodeShowcase.hostC.app[0] packetReceived:vector(packetBytes):stddev nan
scalar HiddenNodeShowcase.hostC.app[0] packetReceived:vector(packetBytes):min inf
scalar HiddenNodeShowcase.hostC.app[0] packetReceived:vector(packetBytes):max -inf
scalar HiddenNodeShowcase.hostC.app[0] packetReceived:vector(packetBytes):starttime nan
scalar HiddenNodeShowcase.hostC.app[0] packetReceived:vector(packetBytes):endtime nan
scalar HiddenNodeShowcase.hostC.app[0] throughput:vector:count 50
scalar HiddenNodeShowcase.hostC.app[0] throughput:vector:sum 0
scalar HiddenNodeShowcase.hostC.app[0] throughput:vector:sumweights 50
scalar HiddenNodeShowcase.hostC.app[0] throughput:vector:mean 0
scalar HiddenNodeShowcase.hostC.app[0] throughput:vector:stddev 0
scalar HiddenNodeShowcase.hostC.app[0] throughput:vector:min 0
scalar HiddenNodeShowcase.hostC.app[0] throughput:vector:max 0
scalar HiddenNodeShowcase.hostC.app[0] throughput:vector:starttime 0.10000000000000001
scalar HiddenNodeShowcase.hostC.app[0] throughput:vector:endtime 5
scalar HiddenNodeShowcase.hostC.app[0] packetSent:vector(packetBytes):count 969
scalar HiddenNodeShowcase.hostC.app[0] packetSent:vector(packetBytes):sum 969000
scalar HiddenNodeShowcase.hostC.app[0] packetSent:vector(packetBytes):sumweights 969
scalar HiddenNodeShowcase.hostC.app[0] packetSent:vector(packetBytes):mean 1000
scalar HiddenNodeShowcase.hostC.app[0] packetSent:vector(packetBytes):stddev 0
scalar HiddenNodeShowcase.hostC.app[0] packetSent:vector(packetBytes):min 1000
scalar HiddenNodeShowcase.hostC.app[0] packetSent:vector(packetBytes):max 1000
scalar HiddenNodeShowcase.hostC.app[0] packetSent:vector(packetBytes):starttime 0.0048850321320000013
scalar HiddenNodeShowcase.hostC.app[0] packetSent:vector(packetBytes):endtime 4.9964966823020012
scalar HiddenNodeShowcase.hostC.app[0] rcvdPkLifetime:vector:count 0
scalar HiddenNodeShowcase.hostC.app[0] rcvdPkLifetime:vector:sum 0
scalar HiddenNodeShowcase.hostC.app[0] rcvdPkLifetime:vector:sumweights 0
scalar HiddenNodeShowcase.hostC.app[0] rcvdPkLifetime:vector:mean -nan
scalar HiddenNodeShowcase.hostC.app[0] rcvdPkLifetime:vector:stddev nan
scalar HiddenNodeShowcase.hostC.app[0] rcvdPkLifetime:vector:min inf
scalar HiddenNodeShowcase.hostC.app[0] rcvdPkLifetime:vector:max -inf
scalar HiddenNodeShowcase.hostC.app[0] rcvdPkLifetime:vector:starttime nan
scalar HiddenNodeShowcase.hostC.app[0] rcvdPkLifetime:vector:endtime nan
scalar HiddenNodeShowcase.hostC.app[0] rcvdPkSeqNo:vector:count 0
scalar HiddenNodeShowcase.hostC.app[0] rcvdPkSeqNo:vector:sum 0
scalar HiddenNodeShowcase.hostC.app[0] rcvdPkSeqNo:vector:sumweights 0
scalar HiddenNodeShowcase.hostC.app[0] rcvdPkSeqNo:vector:mean -nan
scalar HiddenNodeShowcase.hostC.app[0] rcvdPkSeqNo:vector:stddev nan
scalar HiddenNodeShowcase.hostC.app[0] rcvdPkSeqNo:vector:min inf
scalar HiddenNodeShowcase.hostC.app[0] rcvdPkSeqNo:vector:max -inf
scalar HiddenNodeShowcase.hostC.app[0] rcvdPkSeqNo:vector:starttime nan
scalar HiddenNodeShowcase.hostC.app[0] rcvdPkSeqNo:vector:endtime nan

