version 3
run General-0-20250108-11:31:44-12700
attr configname General
attr datetime 20250108-11:31:44
attr datetimef 20250108-113144
attr experiment General
attr inifile omnetpp.ini
attr iterationvars "$distance=110, $detail=\"packet\", $modulation=\"BPSK\", $fecType=\"\", $bitrate=\"\" == \"\" ? 36Mbps : 18Mbps"
attr iterationvarsd distance=110/detail=packet/modulation=BPSK/fecType=/bitrate=#22#22_==_#22#22_#3f_36Mbps_#3a_18Mbps
attr iterationvarsf distance=110,detail=packet,modulation=BPSK,fecType=,bitrate=#22#22_==_#22#22_#3f_36Mbps_#3a_18Mbps-
attr measurement "$distance=110, $detail=\"packet\", $modulation=\"BPSK\", $fecType=\"\", $bitrate=\"\" == \"\" ? 36Mbps : 18Mbps"
attr network LayeredApsk
attr processid 12700
attr repetition 0
attr replication #0
attr resultdir results
attr runnumber 0
attr seedset 0
itervar bitrate "\"\" == \"\" ? 36Mbps : 18Mbps"
itervar detail "\"packet\""
itervar distance 110
itervar fecType "\"\""
itervar modulation "\"BPSK\""
config **.param-recording false
config image-path /home/levy/workspace/inet/images
config output-scalar-file results/omnetpp.ini-General-#0.sca
config output-vector-file results/omnetpp.ini-General-#0.vec
config sim-time-limit 100s
config network LayeredApsk
config sim-time-limit 100s
config description "host1 pinging host0"
config **.vector-recording false
config *.numHosts 2
config **.arp.typename GlobalArp
config **.crcMode "\"computed\""
config **.fcsMode "\"computed\""
config **.constraintAreaMinX 0m
config **.constraintAreaMinY 0m
config **.constraintAreaMinZ 0m
config **.constraintAreaMaxX 1000m
config **.constraintAreaMaxY 400m
config **.constraintAreaMaxZ 0m
config **.host*.mobility.typename StationaryMobility
config **.host*.mobility.initFromDisplayString false
config **.host[0].mobility.initialX 100m
config **.host[0].mobility.initialY 200m
config **.host[1].mobility.initialY 200m
config **.host[*].mobility.initialZ 0m
config *.host[0].numApps 0
config *.host[*].numApps 1
config *.host[*].app[0].typename PingApp
config *.host[*].app[*].destAddr "\"host[0]\""
config **.wlan[*].radio.transmitter.power 0.1mW
config **.wlan[*].radio.receiver.sensitivity -109dBm
config **.wlan[*].radio.receiver.snirThreshold 1dB
config **.wlan[*].typename Ieee80211Interface
config **.wlan[*].radio.typename ApskRadio
config **.wlan[*].radio.signalAnalogRepresentation "\"scalar\""
config **.wlan[*].radio.centerFrequency 2.4GHz
config **.wlan[*].radio.receiver.energyDetection -90dBm
config **.wlan[*].radio.bandwidth 20MHz
config **.host[1].mobility.initialX "100m + 110m"
config **.wlan[*].radio.**.levelOfDetail "\"packet\""
config **.wlan[*].radio.**.modulation "\"BPSK\""
config **.wlan[*].radio.**.fec*.typename ""
config **.bitrate "\"\" == \"\" ? 36Mbps : 18Mbps"
config **.backgroundNoise.power -110dBm
config **.wlan[*].radio.transmitter.typename ApskLayeredTransmitter
config **.wlan[*].radio.transmitter.encoder.typename ApskEncoder
config **.wlan[*].radio.transmitter.modulator.typename ApskModulator
config **.wlan[*].radio.transmitter.encoder.fecEncoder.transferFunctionMatrix "\"1 3\""
config **.wlan[*].radio.transmitter.encoder.fecEncoder.constraintLengthVector "\"2\""
config **.wlan[*].radio.transmitter.encoder.fecEncoder.puncturingMatrix "\"1; 1\""
config **.wlan[*].radio.transmitter.encoder.fecEncoder.punctureK 1
config **.wlan[*].radio.transmitter.encoder.fecEncoder.punctureN 2
config **.wlan[*].radio.receiver.typename ApskLayeredReceiver
config **.wlan[*].radio.receiver.errorModel.typename ApskLayeredErrorModel
config **.wlan[*].radio.receiver.decoder.typename ApskDecoder
config **.wlan[*].radio.receiver.demodulator.typename ApskDemodulator
config **.wlan[*].radio.receiver.decoder.fecDecoder.transferFunctionMatrix "\"1 3\""
config **.wlan[*].radio.receiver.decoder.fecDecoder.constraintLengthVector "\"2\""
config **.wlan[*].radio.receiver.decoder.fecDecoder.puncturingMatrix "\"1; 1\""
config **.wlan[*].radio.receiver.decoder.fecDecoder.punctureK 1
config **.wlan[*].radio.receiver.decoder.fecDecoder.punctureN 2
config **.wlan[*].mac.*.rateSelection.dataFrameBitrate 54Mbps
config **.wlan[*].mac.*.rateSelection.multicastFrameBitrate 24Mbps
config **.wlan[*].mac.*.rateSelection.responseAckFrameBitrate 1Mbps
config **.wlan[*].mac.*.rateSelection.mgmtFrameBitrate 54Mbps
config **.wlan[*].mac.*.rateSelection.controlFrameBitrate 1Mbps

scalar LayeredApsk.radioMedium.propagation "Arrival computation count" 400
scalar LayeredApsk.radioMedium "transmission count" 400
scalar LayeredApsk.radioMedium "signal send count" 400
scalar LayeredApsk.radioMedium "reception computation count" 400
scalar LayeredApsk.radioMedium "interference computation count" 1604
scalar LayeredApsk.radioMedium "reception decision computation count" 400
scalar LayeredApsk.radioMedium "listening decision computation count" 804
scalar LayeredApsk.radioMedium "reception cache hit" 85.714285714286
scalar LayeredApsk.radioMedium "interference cache hit" 66.666666666667
scalar LayeredApsk.radioMedium "noise cache hit" 0
scalar LayeredApsk.radioMedium "snir cache hit" 50
scalar LayeredApsk.radioMedium "reception decision cache hit" 50
scalar LayeredApsk.radioMedium "reception result cache hit" 0
scalar LayeredApsk.host[0].lo[0].lo rcvdPkFromHl:count 0
scalar LayeredApsk.host[0].lo[0].lo rcvdPkFromHl:sum(packetBytes) 0
scalar LayeredApsk.host[0].lo[0].lo passedUpPk:count 0
scalar LayeredApsk.host[0].lo[0].lo passedUpPk:sum(packetBytes) 0
scalar LayeredApsk.host[0].lo[0] packetDropInterfaceDown:count 0
scalar LayeredApsk.host[0].lo[0] packetDropInterfaceDown:sum(packetBytes) 0
scalar LayeredApsk.host[0].lo[0] packetDropNoCarrier:count 0
scalar LayeredApsk.host[0].lo[0] packetDropNoCarrier:sum(packetBytes) 0
scalar LayeredApsk.host[0].wlan[0].mac.dcf.channelAccess.pendingQueue queueLength:last 0
scalar LayeredApsk.host[0].wlan[0].mac.dcf.channelAccess.pendingQueue queueLength:max 1
scalar LayeredApsk.host[0].wlan[0].mac.dcf.channelAccess.pendingQueue queueLength:timeavg 0.000338688889
scalar LayeredApsk.host[0].wlan[0].mac.dcf.channelAccess.pendingQueue queueBitLength:last 0
scalar LayeredApsk.host[0].wlan[0].mac.dcf.channelAccess.pendingQueue queueBitLength:max 960
scalar LayeredApsk.host[0].wlan[0].mac.dcf.channelAccess.pendingQueue queueBitLength:timeavg 0.32514133344
scalar LayeredApsk.host[0].wlan[0].mac.dcf.channelAccess.pendingQueue outgoingPackets:count 100
scalar LayeredApsk.host[0].wlan[0].mac.dcf.channelAccess.pendingQueue outgoingPacketLengths:sum 96000
scalar LayeredApsk.host[0].wlan[0].mac.dcf.channelAccess.pendingQueue incomingPackets:count 100
scalar LayeredApsk.host[0].wlan[0].mac.dcf.channelAccess.pendingQueue incomingPacketLengths:sum 96000
scalar LayeredApsk.host[0].wlan[0].mac.dcf.channelAccess.pendingQueue droppedPacketsQueueOverflow:count 0
scalar LayeredApsk.host[0].wlan[0].mac.dcf.channelAccess.pendingQueue droppedPacketLengthsQueueOverflow:sum 0
scalar LayeredApsk.host[0].wlan[0].mac.dcf.channelAccess.inProgressFrames queueLength:max 1
scalar LayeredApsk.host[0].wlan[0].mac.dcf.channelAccess.inProgressFrames queueLength:timeavg 4.4067175e-05
scalar LayeredApsk.host[0].wlan[0].mac.dcf.channelAccess.contention channelAccessGranted:count 100
scalar LayeredApsk.host[0].wlan[0].mac.dcf.channelAccess.contention stateChanged:count 1602
scalar LayeredApsk.host[0].wlan[0].mac.dcf.channelAccess channelOwnershipChanged:count 200
scalar LayeredApsk.host[0].wlan[0].mac.dcf.originatorMacDataService packetAggregated:count 0
scalar LayeredApsk.host[0].wlan[0].mac.dcf.originatorMacDataService packetFragmented:count 0
scalar LayeredApsk.host[0].wlan[0].mac.dcf.recipientMacDataService packetDeaggregated:count 0
scalar LayeredApsk.host[0].wlan[0].mac.dcf.recipientMacDataService packetDefragmented:count 100
scalar LayeredApsk.host[0].wlan[0].mac.dcf.recipientMacDataService packetDropDuplicateDetected:count 0
scalar LayeredApsk.host[0].wlan[0].mac.dcf.recipientMacDataService packetDropDuplicateDetected:sum(packetBytes) 0
scalar LayeredApsk.host[0].wlan[0].mac.dcf.recoveryProcedure retryLimitReached:count 0
scalar LayeredApsk.host[0].wlan[0].mac.dcf frameSequenceFinished:count 100
scalar LayeredApsk.host[0].wlan[0].mac.dcf packetReceivedFromPeer:count 200
scalar LayeredApsk.host[0].wlan[0].mac.dcf packetReceivedFromPeer:sum(packetBytes) 13400
scalar LayeredApsk.host[0].wlan[0].mac.dcf packetReceivedFromPeerUnicast:count 200
scalar LayeredApsk.host[0].wlan[0].mac.dcf packetReceivedFromPeerUnicast:sum(packetBytes) 13400
scalar LayeredApsk.host[0].wlan[0].mac.dcf packetReceivedFromPeerMulticast:count 0
scalar LayeredApsk.host[0].wlan[0].mac.dcf packetReceivedFromPeerMulticast:sum(packetBytes) 0
scalar LayeredApsk.host[0].wlan[0].mac.dcf packetReceivedFromPeerBroadcast:count 0
scalar LayeredApsk.host[0].wlan[0].mac.dcf packetReceivedFromPeerBroadcast:sum(packetBytes) 0
scalar LayeredApsk.host[0].wlan[0].mac.dcf packetReceivedFromPeerWithRetry:count 0
scalar LayeredApsk.host[0].wlan[0].mac.dcf packetReceivedFromPeerWithRetry:sum(packetBytes) 0
scalar LayeredApsk.host[0].wlan[0].mac.dcf packetReceivedFromPeerWithoutRetry:count 200
scalar LayeredApsk.host[0].wlan[0].mac.dcf packetReceivedFromPeerWithoutRetry:sum(packetBytes) 13400
scalar LayeredApsk.host[0].wlan[0].mac.dcf packetSentToPeer:count 200
scalar LayeredApsk.host[0].wlan[0].mac.dcf packetSentToPeer:sum(packetBytes) 13400
scalar LayeredApsk.host[0].wlan[0].mac.dcf packetSentToPeerUnicast:count 200
scalar LayeredApsk.host[0].wlan[0].mac.dcf packetSentToPeerUnicast:sum(packetBytes) 13400
scalar LayeredApsk.host[0].wlan[0].mac.dcf packetSentToPeerMulticast:count 0
scalar LayeredApsk.host[0].wlan[0].mac.dcf packetSentToPeerMulticast:sum(packetBytes) 0
scalar LayeredApsk.host[0].wlan[0].mac.dcf packetSentToPeerBroadcast:count 0
scalar LayeredApsk.host[0].wlan[0].mac.dcf packetSentToPeerBroadcast:sum(packetBytes) 0
scalar LayeredApsk.host[0].wlan[0].mac.dcf packetSentToPeerWithRetry:count 0
scalar LayeredApsk.host[0].wlan[0].mac.dcf packetSentToPeerWithRetry:sum(packetBytes) 0
scalar LayeredApsk.host[0].wlan[0].mac.dcf packetSentToPeerWithoutRetry:count 200
scalar LayeredApsk.host[0].wlan[0].mac.dcf packetSentToPeerWithoutRetry:sum(packetBytes) 13400
scalar LayeredApsk.host[0].wlan[0].mac.dcf packetDrop:count 0
scalar LayeredApsk.host[0].wlan[0].mac.dcf packetDrop:sum(packetBytes) 0
scalar LayeredApsk.host[0].wlan[0].mac.dcf packetDropNotAddressedToUs:count 0
scalar LayeredApsk.host[0].wlan[0].mac.dcf packetDropNotAddressedToUs:sum(packetBytes) 0
scalar LayeredApsk.host[0].wlan[0].mac.dcf packetDropQueueOverflow:count 0
scalar LayeredApsk.host[0].wlan[0].mac.dcf packetDropQueueOverflow:sum(packetBytes) 0
scalar LayeredApsk.host[0].wlan[0].mac.dcf packetDropRetryLimitReached:count 0
scalar LayeredApsk.host[0].wlan[0].mac.dcf packetDropRetryLimitReached:sum(packetBytes) 0
scalar LayeredApsk.host[0].wlan[0].mac.dcf linkBroken:count 0
scalar LayeredApsk.host[0].wlan[0].mac packetReceivedFromLower:count 200
scalar LayeredApsk.host[0].wlan[0].mac packetReceivedFromLower:sum(packetBytes) 13400
scalar LayeredApsk.host[0].wlan[0].mac packetSentToLower:count 200
scalar LayeredApsk.host[0].wlan[0].mac packetSentToLower:sum(packetBytes) 13400
scalar LayeredApsk.host[0].wlan[0].mac packetReceivedFromUpper:count 100
scalar LayeredApsk.host[0].wlan[0].mac packetReceivedFromUpper:sum(packetBytes) 9200
scalar LayeredApsk.host[0].wlan[0].mac packetSentToUpper:count 100
scalar LayeredApsk.host[0].wlan[0].mac packetSentToUpper:sum(packetBytes) 9200
scalar LayeredApsk.host[0].wlan[0].mac packetDrop:count 0
scalar LayeredApsk.host[0].wlan[0].mac packetDrop:sum(packetBytes) 0
scalar LayeredApsk.host[0].wlan[0].mac packetDropIncorrectlyReceived:count 0
scalar LayeredApsk.host[0].wlan[0].mac packetDropIncorrectlyReceived:sum(packetBytes) 0
scalar LayeredApsk.host[0].wlan[0].mac packetDropNotAddressedToUs:count 0
scalar LayeredApsk.host[0].wlan[0].mac packetDropNotAddressedToUs:sum(packetBytes) 0
scalar LayeredApsk.host[0].wlan[0].mac packetDropQueueOverflow:count 0
scalar LayeredApsk.host[0].wlan[0].mac packetDropQueueOverflow:sum(packetBytes) 0
scalar LayeredApsk.host[0].wlan[0].mac packetDropRetryLimitReached:count 0
scalar LayeredApsk.host[0].wlan[0].mac packetDropRetryLimitReached:sum(packetBytes) 0
scalar LayeredApsk.host[0].wlan[0].mac packetDropDuplicateDetected:count 0
scalar LayeredApsk.host[0].wlan[0].mac packetDropDuplicateDetected:sum(packetBytes) 0
scalar LayeredApsk.host[0].wlan[0].mac packetDropOther:count 0
scalar LayeredApsk.host[0].wlan[0].mac packetDropOther:sum(packetBytes) 0
scalar LayeredApsk.host[0].wlan[0].mac linkBroken:count 0
scalar LayeredApsk.host[0].wlan[0].radio radioMode:count 403
scalar LayeredApsk.host[0].wlan[0].radio receptionState:count 801
scalar LayeredApsk.host[0].wlan[0].radio transmissionState:count 800
scalar LayeredApsk.host[0].wlan[0].radio packetDropped:count 0
scalar LayeredApsk.host[0].wlan[0].radio packetDropped:sum(packetBytes) 0
scalar LayeredApsk.host[0].wlan[0] packetDropInterfaceDown:count 0
scalar LayeredApsk.host[0].wlan[0] packetDropInterfaceDown:sum(packetBytes) 0
scalar LayeredApsk.host[0].wlan[0] packetDropNoCarrier:count 0
scalar LayeredApsk.host[0].wlan[0] packetDropNoCarrier:sum(packetBytes) 0
scalar LayeredApsk.host[0].ipv4.ip packetDropAddressResolutionFailed:count 0
scalar LayeredApsk.host[0].ipv4.ip packetDropAddressResolutionFailed:sum(packetBytes) 0
scalar LayeredApsk.host[0].ipv4.ip packetDropHopLimitReached:count 0
scalar LayeredApsk.host[0].ipv4.ip packetDropHopLimitReached:sum(packetBytes) 0
scalar LayeredApsk.host[0].ipv4.ip packetDropForwardingDisabled:count 0
scalar LayeredApsk.host[0].ipv4.ip packetDropForwardingDisabled:sum(packetBytes) 0
scalar LayeredApsk.host[0].ipv4.ip packetDropLifetimeExpired:count 0
scalar LayeredApsk.host[0].ipv4.ip packetDropLifetimeExpired:sum(packetBytes) 0
scalar LayeredApsk.host[0].ipv4.ip packetDropNoInterfaceFound:count 0
scalar LayeredApsk.host[0].ipv4.ip packetDropNoInterfaceFound:sum(packetBytes) 0
scalar LayeredApsk.host[0].ipv4.ip packetDropNoRouteFound:count 0
scalar LayeredApsk.host[0].ipv4.ip packetDropNoRouteFound:sum(packetBytes) 0
scalar LayeredApsk.host[0].ipv4.ip packetDropUndefined:count 0
scalar LayeredApsk.host[0].ipv4.ip packetDropUndefined:sum(packetBytes) 0
scalar LayeredApsk.host[0].udp packetReceived:count 0
scalar LayeredApsk.host[0].udp packetReceived:sum(packetBytes) 0
scalar LayeredApsk.host[0].udp packetSent:count 0
scalar LayeredApsk.host[0].udp packetSent:sum(packetBytes) 0
scalar LayeredApsk.host[0].udp passedUpPk:count 0
scalar LayeredApsk.host[0].udp droppedPkWrongPort:count 0
scalar LayeredApsk.host[0].udp droppedPkBadChecksum:count 0
scalar LayeredApsk.host[1].lo[0].lo rcvdPkFromHl:count 0
scalar LayeredApsk.host[1].lo[0].lo rcvdPkFromHl:sum(packetBytes) 0
scalar LayeredApsk.host[1].lo[0].lo passedUpPk:count 0
scalar LayeredApsk.host[1].lo[0].lo passedUpPk:sum(packetBytes) 0
scalar LayeredApsk.host[1].lo[0] packetDropInterfaceDown:count 0
scalar LayeredApsk.host[1].lo[0] packetDropInterfaceDown:sum(packetBytes) 0
scalar LayeredApsk.host[1].lo[0] packetDropNoCarrier:count 0
scalar LayeredApsk.host[1].lo[0] packetDropNoCarrier:sum(packetBytes) 0
scalar LayeredApsk.host[1].wlan[0].mac.dcf.channelAccess.pendingQueue queueLength:last 0
scalar LayeredApsk.host[1].wlan[0].mac.dcf.channelAccess.pendingQueue queueLength:max 1
scalar LayeredApsk.host[1].wlan[0].mac.dcf.channelAccess.pendingQueue queueLength:timeavg 0
scalar LayeredApsk.host[1].wlan[0].mac.dcf.channelAccess.pendingQueue queueBitLength:last 0
scalar LayeredApsk.host[1].wlan[0].mac.dcf.channelAccess.pendingQueue queueBitLength:max 960
scalar LayeredApsk.host[1].wlan[0].mac.dcf.channelAccess.pendingQueue queueBitLength:timeavg 0
scalar LayeredApsk.host[1].wlan[0].mac.dcf.channelAccess.pendingQueue outgoingPackets:count 100
scalar LayeredApsk.host[1].wlan[0].mac.dcf.channelAccess.pendingQueue outgoingPacketLengths:sum 96000
scalar LayeredApsk.host[1].wlan[0].mac.dcf.channelAccess.pendingQueue incomingPackets:count 100
scalar LayeredApsk.host[1].wlan[0].mac.dcf.channelAccess.pendingQueue incomingPacketLengths:sum 96000
scalar LayeredApsk.host[1].wlan[0].mac.dcf.channelAccess.pendingQueue droppedPacketsQueueOverflow:count 0
scalar LayeredApsk.host[1].wlan[0].mac.dcf.channelAccess.pendingQueue droppedPacketLengthsQueueOverflow:sum 0
scalar LayeredApsk.host[1].wlan[0].mac.dcf.channelAccess.inProgressFrames queueLength:max 1
scalar LayeredApsk.host[1].wlan[0].mac.dcf.channelAccess.inProgressFrames queueLength:timeavg 4.4067175e-05
scalar LayeredApsk.host[1].wlan[0].mac.dcf.channelAccess.contention channelAccessGranted:count 100
scalar LayeredApsk.host[1].wlan[0].mac.dcf.channelAccess.contention stateChanged:count 1238
scalar LayeredApsk.host[1].wlan[0].mac.dcf.channelAccess channelOwnershipChanged:count 200
scalar LayeredApsk.host[1].wlan[0].mac.dcf.originatorMacDataService packetAggregated:count 0
scalar LayeredApsk.host[1].wlan[0].mac.dcf.originatorMacDataService packetFragmented:count 0
scalar LayeredApsk.host[1].wlan[0].mac.dcf.recipientMacDataService packetDeaggregated:count 0
scalar LayeredApsk.host[1].wlan[0].mac.dcf.recipientMacDataService packetDefragmented:count 100
scalar LayeredApsk.host[1].wlan[0].mac.dcf.recipientMacDataService packetDropDuplicateDetected:count 0
scalar LayeredApsk.host[1].wlan[0].mac.dcf.recipientMacDataService packetDropDuplicateDetected:sum(packetBytes) 0
scalar LayeredApsk.host[1].wlan[0].mac.dcf.recoveryProcedure retryLimitReached:count 0
scalar LayeredApsk.host[1].wlan[0].mac.dcf frameSequenceFinished:count 100
scalar LayeredApsk.host[1].wlan[0].mac.dcf packetReceivedFromPeer:count 200
scalar LayeredApsk.host[1].wlan[0].mac.dcf packetReceivedFromPeer:sum(packetBytes) 13400
scalar LayeredApsk.host[1].wlan[0].mac.dcf packetReceivedFromPeerUnicast:count 200
scalar LayeredApsk.host[1].wlan[0].mac.dcf packetReceivedFromPeerUnicast:sum(packetBytes) 13400
scalar LayeredApsk.host[1].wlan[0].mac.dcf packetReceivedFromPeerMulticast:count 0
scalar LayeredApsk.host[1].wlan[0].mac.dcf packetReceivedFromPeerMulticast:sum(packetBytes) 0
scalar LayeredApsk.host[1].wlan[0].mac.dcf packetReceivedFromPeerBroadcast:count 0
scalar LayeredApsk.host[1].wlan[0].mac.dcf packetReceivedFromPeerBroadcast:sum(packetBytes) 0
scalar LayeredApsk.host[1].wlan[0].mac.dcf packetReceivedFromPeerWithRetry:count 0
scalar LayeredApsk.host[1].wlan[0].mac.dcf packetReceivedFromPeerWithRetry:sum(packetBytes) 0
scalar LayeredApsk.host[1].wlan[0].mac.dcf packetReceivedFromPeerWithoutRetry:count 200
scalar LayeredApsk.host[1].wlan[0].mac.dcf packetReceivedFromPeerWithoutRetry:sum(packetBytes) 13400
scalar LayeredApsk.host[1].wlan[0].mac.dcf packetSentToPeer:count 200
scalar LayeredApsk.host[1].wlan[0].mac.dcf packetSentToPeer:sum(packetBytes) 13400
scalar LayeredApsk.host[1].wlan[0].mac.dcf packetSentToPeerUnicast:count 200
scalar LayeredApsk.host[1].wlan[0].mac.dcf packetSentToPeerUnicast:sum(packetBytes) 13400
scalar LayeredApsk.host[1].wlan[0].mac.dcf packetSentToPeerMulticast:count 0
scalar LayeredApsk.host[1].wlan[0].mac.dcf packetSentToPeerMulticast:sum(packetBytes) 0
scalar LayeredApsk.host[1].wlan[0].mac.dcf packetSentToPeerBroadcast:count 0
scalar LayeredApsk.host[1].wlan[0].mac.dcf packetSentToPeerBroadcast:sum(packetBytes) 0
scalar LayeredApsk.host[1].wlan[0].mac.dcf packetSentToPeerWithRetry:count 0
scalar LayeredApsk.host[1].wlan[0].mac.dcf packetSentToPeerWithRetry:sum(packetBytes) 0
scalar LayeredApsk.host[1].wlan[0].mac.dcf packetSentToPeerWithoutRetry:count 200
scalar LayeredApsk.host[1].wlan[0].mac.dcf packetSentToPeerWithoutRetry:sum(packetBytes) 13400
scalar LayeredApsk.host[1].wlan[0].mac.dcf packetDrop:count 0
scalar LayeredApsk.host[1].wlan[0].mac.dcf packetDrop:sum(packetBytes) 0
scalar LayeredApsk.host[1].wlan[0].mac.dcf packetDropNotAddressedToUs:count 0
scalar LayeredApsk.host[1].wlan[0].mac.dcf packetDropNotAddressedToUs:sum(packetBytes) 0
scalar LayeredApsk.host[1].wlan[0].mac.dcf packetDropQueueOverflow:count 0
scalar LayeredApsk.host[1].wlan[0].mac.dcf packetDropQueueOverflow:sum(packetBytes) 0
scalar LayeredApsk.host[1].wlan[0].mac.dcf packetDropRetryLimitReached:count 0
scalar LayeredApsk.host[1].wlan[0].mac.dcf packetDropRetryLimitReached:sum(packetBytes) 0
scalar LayeredApsk.host[1].wlan[0].mac.dcf linkBroken:count 0
scalar LayeredApsk.host[1].wlan[0].mac packetReceivedFromLower:count 200
scalar LayeredApsk.host[1].wlan[0].mac packetReceivedFromLower:sum(packetBytes) 13400
scalar LayeredApsk.host[1].wlan[0].mac packetSentToLower:count 200
scalar LayeredApsk.host[1].wlan[0].mac packetSentToLower:sum(packetBytes) 13400
scalar LayeredApsk.host[1].wlan[0].mac packetReceivedFromUpper:count 100
scalar LayeredApsk.host[1].wlan[0].mac packetReceivedFromUpper:sum(packetBytes) 9200
scalar LayeredApsk.host[1].wlan[0].mac packetSentToUpper:count 100
scalar LayeredApsk.host[1].wlan[0].mac packetSentToUpper:sum(packetBytes) 9200
scalar LayeredApsk.host[1].wlan[0].mac packetDrop:count 0
scalar LayeredApsk.host[1].wlan[0].mac packetDrop:sum(packetBytes) 0
scalar LayeredApsk.host[1].wlan[0].mac packetDropIncorrectlyReceived:count 0
scalar LayeredApsk.host[1].wlan[0].mac packetDropIncorrectlyReceived:sum(packetBytes) 0
scalar LayeredApsk.host[1].wlan[0].mac packetDropNotAddressedToUs:count 0
scalar LayeredApsk.host[1].wlan[0].mac packetDropNotAddressedToUs:sum(packetBytes) 0
scalar LayeredApsk.host[1].wlan[0].mac packetDropQueueOverflow:count 0
scalar LayeredApsk.host[1].wlan[0].mac packetDropQueueOverflow:sum(packetBytes) 0
scalar LayeredApsk.host[1].wlan[0].mac packetDropRetryLimitReached:count 0
scalar LayeredApsk.host[1].wlan[0].mac packetDropRetryLimitReached:sum(packetBytes) 0
scalar LayeredApsk.host[1].wlan[0].mac packetDropDuplicateDetected:count 0
scalar LayeredApsk.host[1].wlan[0].mac packetDropDuplicateDetected:sum(packetBytes) 0
scalar LayeredApsk.host[1].wlan[0].mac packetDropOther:count 0
scalar LayeredApsk.host[1].wlan[0].mac packetDropOther:sum(packetBytes) 0
scalar LayeredApsk.host[1].wlan[0].mac linkBroken:count 0
scalar LayeredApsk.host[1].wlan[0].radio radioMode:count 403
scalar LayeredApsk.host[1].wlan[0].radio receptionState:count 801
scalar LayeredApsk.host[1].wlan[0].radio transmissionState:count 800
scalar LayeredApsk.host[1].wlan[0].radio packetDropped:count 0
scalar LayeredApsk.host[1].wlan[0].radio packetDropped:sum(packetBytes) 0
scalar LayeredApsk.host[1].wlan[0] packetDropInterfaceDown:count 0
scalar LayeredApsk.host[1].wlan[0] packetDropInterfaceDown:sum(packetBytes) 0
scalar LayeredApsk.host[1].wlan[0] packetDropNoCarrier:count 0
scalar LayeredApsk.host[1].wlan[0] packetDropNoCarrier:sum(packetBytes) 0
scalar LayeredApsk.host[1].ipv4.ip packetDropAddressResolutionFailed:count 0
scalar LayeredApsk.host[1].ipv4.ip packetDropAddressResolutionFailed:sum(packetBytes) 0
scalar LayeredApsk.host[1].ipv4.ip packetDropHopLimitReached:count 0
scalar LayeredApsk.host[1].ipv4.ip packetDropHopLimitReached:sum(packetBytes) 0
scalar LayeredApsk.host[1].ipv4.ip packetDropForwardingDisabled:count 0
scalar LayeredApsk.host[1].ipv4.ip packetDropForwardingDisabled:sum(packetBytes) 0
scalar LayeredApsk.host[1].ipv4.ip packetDropLifetimeExpired:count 0
scalar LayeredApsk.host[1].ipv4.ip packetDropLifetimeExpired:sum(packetBytes) 0
scalar LayeredApsk.host[1].ipv4.ip packetDropNoInterfaceFound:count 0
scalar LayeredApsk.host[1].ipv4.ip packetDropNoInterfaceFound:sum(packetBytes) 0
scalar LayeredApsk.host[1].ipv4.ip packetDropNoRouteFound:count 0
scalar LayeredApsk.host[1].ipv4.ip packetDropNoRouteFound:sum(packetBytes) 0
scalar LayeredApsk.host[1].ipv4.ip packetDropUndefined:count 0
scalar LayeredApsk.host[1].ipv4.ip packetDropUndefined:sum(packetBytes) 0
scalar LayeredApsk.host[1].udp packetReceived:count 0
scalar LayeredApsk.host[1].udp packetReceived:sum(packetBytes) 0
scalar LayeredApsk.host[1].udp packetSent:count 0
scalar LayeredApsk.host[1].udp packetSent:sum(packetBytes) 0
scalar LayeredApsk.host[1].udp passedUpPk:count 0
scalar LayeredApsk.host[1].udp droppedPkWrongPort:count 0
scalar LayeredApsk.host[1].udp droppedPkBadChecksum:count 0
scalar LayeredApsk.host[1].app[0] "Pings sent" 100
scalar LayeredApsk.host[1].app[0] "ping loss rate (%)" 0
scalar LayeredApsk.host[1].app[0] "ping out-of-order rate (%)" 0
scalar LayeredApsk.host[1].app[0] pingRxSeq:count 100
scalar LayeredApsk.host[1].app[0] pingTxSeq:count 100
scalar LayeredApsk.host[1].app[0] numOutOfOrderArrivals:last nan
scalar LayeredApsk.host[1].app[0] numLost:last nan
scalar LayeredApsk.host[0].wlan[0].mac.dcf.channelAccess.pendingQueue queueingTime:histogram:count 100
scalar LayeredApsk.host[0].wlan[0].mac.dcf.channelAccess.pendingQueue queueingTime:histogram:sumweights 100
scalar LayeredApsk.host[0].wlan[0].mac.dcf.channelAccess.pendingQueue queueingTime:histogram:mean 0.000338688889
scalar LayeredApsk.host[0].wlan[0].mac.dcf.channelAccess.pendingQueue queueingTime:histogram:stddev 0.00018970886786192
scalar LayeredApsk.host[0].wlan[0].mac.dcf.channelAccess.pendingQueue queueingTime:histogram:min 6.4888889e-05
scalar LayeredApsk.host[0].wlan[0].mac.dcf.channelAccess.pendingQueue queueingTime:histogram:max 0.000684888889
scalar LayeredApsk.host[0].wlan[0].mac.dcf.channelAccess.pendingQueue queueingTime:histogram:numbins 84
scalar LayeredApsk.host[0].wlan[0].mac.dcf.channelAccess.pendingQueue queueingTime:histogram:rangemin 0
scalar LayeredApsk.host[0].wlan[0].mac.dcf.channelAccess.pendingQueue queueingTime:histogram:rangemax 0.00084
scalar LayeredApsk.host[0].wlan[0].mac.dcf.channelAccess.pendingQueue queueingTime:histogram:underflows 0
scalar LayeredApsk.host[0].wlan[0].mac.dcf.channelAccess.pendingQueue queueingTime:histogram:overflows 0
scalar LayeredApsk.host[0].wlan[0].mac.dcf.channelAccess.pendingQueue outgoingPacketLengths:histogram:count 100
scalar LayeredApsk.host[0].wlan[0].mac.dcf.channelAccess.pendingQueue outgoingPacketLengths:histogram:sumweights 100
scalar LayeredApsk.host[0].wlan[0].mac.dcf.channelAccess.pendingQueue outgoingPacketLengths:histogram:mean 960
scalar LayeredApsk.host[0].wlan[0].mac.dcf.channelAccess.pendingQueue outgoingPacketLengths:histogram:stddev 0
scalar LayeredApsk.host[0].wlan[0].mac.dcf.channelAccess.pendingQueue outgoingPacketLengths:histogram:min 960
scalar LayeredApsk.host[0].wlan[0].mac.dcf.channelAccess.pendingQueue outgoingPacketLengths:histogram:max 960
scalar LayeredApsk.host[0].wlan[0].mac.dcf.channelAccess.pendingQueue outgoingPacketLengths:histogram:numbins 2
scalar LayeredApsk.host[0].wlan[0].mac.dcf.channelAccess.pendingQueue outgoingPacketLengths:histogram:rangemin 959
scalar LayeredApsk.host[0].wlan[0].mac.dcf.channelAccess.pendingQueue outgoingPacketLengths:histogram:rangemax 961
scalar LayeredApsk.host[0].wlan[0].mac.dcf.channelAccess.pendingQueue outgoingPacketLengths:histogram:underflows 0
scalar LayeredApsk.host[0].wlan[0].mac.dcf.channelAccess.pendingQueue outgoingPacketLengths:histogram:overflows 0
scalar LayeredApsk.host[0].wlan[0].mac.dcf.channelAccess.pendingQueue flowQueueingTime:histogram:count 0
scalar LayeredApsk.host[0].wlan[0].mac.dcf.channelAccess.pendingQueue flowQueueingTime:histogram:sumweights 0
scalar LayeredApsk.host[0].wlan[0].mac.dcf.channelAccess.pendingQueue flowQueueingTime:histogram:mean -nan
scalar LayeredApsk.host[0].wlan[0].mac.dcf.channelAccess.pendingQueue flowQueueingTime:histogram:stddev nan
scalar LayeredApsk.host[0].wlan[0].mac.dcf.channelAccess.pendingQueue flowQueueingTime:histogram:min nan
scalar LayeredApsk.host[0].wlan[0].mac.dcf.channelAccess.pendingQueue flowQueueingTime:histogram:max nan
scalar LayeredApsk.host[0].wlan[0].mac.dcf.channelAccess.pendingQueue flowQueueingTime:histogram:numbins 1
scalar LayeredApsk.host[0].wlan[0].mac.dcf.channelAccess.pendingQueue flowQueueingTime:histogram:rangemin 0
scalar LayeredApsk.host[0].wlan[0].mac.dcf.channelAccess.pendingQueue flowQueueingTime:histogram:rangemax 1
scalar LayeredApsk.host[0].wlan[0].mac.dcf.channelAccess.pendingQueue flowQueueingTime:histogram:underflows 0
scalar LayeredApsk.host[0].wlan[0].mac.dcf.channelAccess.pendingQueue flowQueueingTime:histogram:overflows 0
scalar LayeredApsk.host[0].wlan[0].mac.dcf.channelAccess.pendingQueue incomingPacketLengths:histogram:count 100
scalar LayeredApsk.host[0].wlan[0].mac.dcf.channelAccess.pendingQueue incomingPacketLengths:histogram:sumweights 100
scalar LayeredApsk.host[0].wlan[0].mac.dcf.channelAccess.pendingQueue incomingPacketLengths:histogram:mean 960
scalar LayeredApsk.host[0].wlan[0].mac.dcf.channelAccess.pendingQueue incomingPacketLengths:histogram:stddev 0
scalar LayeredApsk.host[0].wlan[0].mac.dcf.channelAccess.pendingQueue incomingPacketLengths:histogram:min 960
scalar LayeredApsk.host[0].wlan[0].mac.dcf.channelAccess.pendingQueue incomingPacketLengths:histogram:max 960
scalar LayeredApsk.host[0].wlan[0].mac.dcf.channelAccess.pendingQueue incomingPacketLengths:histogram:numbins 2
scalar LayeredApsk.host[0].wlan[0].mac.dcf.channelAccess.pendingQueue incomingPacketLengths:histogram:rangemin 959
scalar LayeredApsk.host[0].wlan[0].mac.dcf.channelAccess.pendingQueue incomingPacketLengths:histogram:rangemax 961
scalar LayeredApsk.host[0].wlan[0].mac.dcf.channelAccess.pendingQueue incomingPacketLengths:histogram:underflows 0
scalar LayeredApsk.host[0].wlan[0].mac.dcf.channelAccess.pendingQueue incomingPacketLengths:histogram:overflows 0
scalar LayeredApsk.host[0].wlan[0].mac.dcf.channelAccess.inProgressFrames queueingTime:histogram:count 100
scalar LayeredApsk.host[0].wlan[0].mac.dcf.channelAccess.inProgressFrames queueingTime:histogram:sumweights 100
scalar LayeredApsk.host[0].wlan[0].mac.dcf.channelAccess.inProgressFrames queueingTime:histogram:mean 4.4067175e-05
scalar LayeredApsk.host[0].wlan[0].mac.dcf.channelAccess.inProgressFrames queueingTime:histogram:stddev 0
scalar LayeredApsk.host[0].wlan[0].mac.dcf.channelAccess.inProgressFrames queueingTime:histogram:min 4.4067175e-05
scalar LayeredApsk.host[0].wlan[0].mac.dcf.channelAccess.inProgressFrames queueingTime:histogram:max 4.4067175e-05
scalar LayeredApsk.host[0].wlan[0].mac.dcf.channelAccess.inProgressFrames queueingTime:histogram:numbins 51
scalar LayeredApsk.host[0].wlan[0].mac.dcf.channelAccess.inProgressFrames queueingTime:histogram:rangemin 0
scalar LayeredApsk.host[0].wlan[0].mac.dcf.channelAccess.inProgressFrames queueingTime:histogram:rangemax 0.51
scalar LayeredApsk.host[0].wlan[0].mac.dcf.channelAccess.inProgressFrames queueingTime:histogram:underflows 0
scalar LayeredApsk.host[0].wlan[0].mac.dcf.channelAccess.inProgressFrames queueingTime:histogram:overflows 0
scalar LayeredApsk.host[0].wlan[0].mac.dcf frameSequenceDuration:histogram:count 100
scalar LayeredApsk.host[0].wlan[0].mac.dcf frameSequenceDuration:histogram:sumweights 100
scalar LayeredApsk.host[0].wlan[0].mac.dcf frameSequenceDuration:histogram:mean 4.4067175e-05
scalar LayeredApsk.host[0].wlan[0].mac.dcf frameSequenceDuration:histogram:stddev 0
scalar LayeredApsk.host[0].wlan[0].mac.dcf frameSequenceDuration:histogram:min 4.4067175e-05
scalar LayeredApsk.host[0].wlan[0].mac.dcf frameSequenceDuration:histogram:max 4.4067175e-05
scalar LayeredApsk.host[0].wlan[0].mac.dcf frameSequenceDuration:histogram:numbins 51
scalar LayeredApsk.host[0].wlan[0].mac.dcf frameSequenceDuration:histogram:rangemin 0
scalar LayeredApsk.host[0].wlan[0].mac.dcf frameSequenceDuration:histogram:rangemax 0.51
scalar LayeredApsk.host[0].wlan[0].mac.dcf frameSequenceDuration:histogram:underflows 0
scalar LayeredApsk.host[0].wlan[0].mac.dcf frameSequenceDuration:histogram:overflows 0
scalar LayeredApsk.host[0].wlan[0].mac.dcf frameSequenceNumPackets:histogram:count 100
scalar LayeredApsk.host[0].wlan[0].mac.dcf frameSequenceNumPackets:histogram:sumweights 100
scalar LayeredApsk.host[0].wlan[0].mac.dcf frameSequenceNumPackets:histogram:mean 2
scalar LayeredApsk.host[0].wlan[0].mac.dcf frameSequenceNumPackets:histogram:stddev 0
scalar LayeredApsk.host[0].wlan[0].mac.dcf frameSequenceNumPackets:histogram:min 2
scalar LayeredApsk.host[0].wlan[0].mac.dcf frameSequenceNumPackets:histogram:max 2
scalar LayeredApsk.host[0].wlan[0].mac.dcf frameSequenceNumPackets:histogram:numbins 2
scalar LayeredApsk.host[0].wlan[0].mac.dcf frameSequenceNumPackets:histogram:rangemin 1
scalar LayeredApsk.host[0].wlan[0].mac.dcf frameSequenceNumPackets:histogram:rangemax 3
scalar LayeredApsk.host[0].wlan[0].mac.dcf frameSequenceNumPackets:histogram:underflows 0
scalar LayeredApsk.host[0].wlan[0].mac.dcf frameSequenceNumPackets:histogram:overflows 0
scalar LayeredApsk.host[0].wlan[0].radio minSnir:histogram:count 200
scalar LayeredApsk.host[0].wlan[0].radio minSnir:histogram:sumweights 200
scalar LayeredApsk.host[0].wlan[0].radio minSnir:histogram:mean 81.660836448915
scalar LayeredApsk.host[0].wlan[0].radio minSnir:histogram:stddev 0
scalar LayeredApsk.host[0].wlan[0].radio minSnir:histogram:min 81.660836448913
scalar LayeredApsk.host[0].wlan[0].radio minSnir:histogram:max 81.660836448913
scalar LayeredApsk.host[0].wlan[0].radio minSnir:histogram:numbins 51
scalar LayeredApsk.host[0].wlan[0].radio minSnir:histogram:rangemin 81.16
scalar LayeredApsk.host[0].wlan[0].radio minSnir:histogram:rangemax 82.18
scalar LayeredApsk.host[0].wlan[0].radio minSnir:histogram:underflows 0
scalar LayeredApsk.host[0].wlan[0].radio minSnir:histogram:overflows 0
scalar LayeredApsk.host[0].wlan[0].radio packetErrorRate:histogram:count 0
scalar LayeredApsk.host[0].wlan[0].radio packetErrorRate:histogram:sumweights 0
scalar LayeredApsk.host[0].wlan[0].radio packetErrorRate:histogram:mean -nan
scalar LayeredApsk.host[0].wlan[0].radio packetErrorRate:histogram:stddev nan
scalar LayeredApsk.host[0].wlan[0].radio packetErrorRate:histogram:min nan
scalar LayeredApsk.host[0].wlan[0].radio packetErrorRate:histogram:max nan
scalar LayeredApsk.host[0].wlan[0].radio packetErrorRate:histogram:numbins 1
scalar LayeredApsk.host[0].wlan[0].radio packetErrorRate:histogram:rangemin 0
scalar LayeredApsk.host[0].wlan[0].radio packetErrorRate:histogram:rangemax 1
scalar LayeredApsk.host[0].wlan[0].radio packetErrorRate:histogram:underflows 0
scalar LayeredApsk.host[0].wlan[0].radio packetErrorRate:histogram:overflows 0
scalar LayeredApsk.host[0].wlan[0].radio bitErrorRate:histogram:count 0
scalar LayeredApsk.host[0].wlan[0].radio bitErrorRate:histogram:sumweights 0
scalar LayeredApsk.host[0].wlan[0].radio bitErrorRate:histogram:mean -nan
scalar LayeredApsk.host[0].wlan[0].radio bitErrorRate:histogram:stddev nan
scalar LayeredApsk.host[0].wlan[0].radio bitErrorRate:histogram:min nan
scalar LayeredApsk.host[0].wlan[0].radio bitErrorRate:histogram:max nan
scalar LayeredApsk.host[0].wlan[0].radio bitErrorRate:histogram:numbins 1
scalar LayeredApsk.host[0].wlan[0].radio bitErrorRate:histogram:rangemin 0
scalar LayeredApsk.host[0].wlan[0].radio bitErrorRate:histogram:rangemax 1
scalar LayeredApsk.host[0].wlan[0].radio bitErrorRate:histogram:underflows 0
scalar LayeredApsk.host[0].wlan[0].radio bitErrorRate:histogram:overflows 0
scalar LayeredApsk.host[0].wlan[0].radio symbolErrorRate:histogram:count 0
scalar LayeredApsk.host[0].wlan[0].radio symbolErrorRate:histogram:sumweights 0
scalar LayeredApsk.host[0].wlan[0].radio symbolErrorRate:histogram:mean -nan
scalar LayeredApsk.host[0].wlan[0].radio symbolErrorRate:histogram:stddev nan
scalar LayeredApsk.host[0].wlan[0].radio symbolErrorRate:histogram:min nan
scalar LayeredApsk.host[0].wlan[0].radio symbolErrorRate:histogram:max nan
scalar LayeredApsk.host[0].wlan[0].radio symbolErrorRate:histogram:numbins 1
scalar LayeredApsk.host[0].wlan[0].radio symbolErrorRate:histogram:rangemin 0
scalar LayeredApsk.host[0].wlan[0].radio symbolErrorRate:histogram:rangemax 1
scalar LayeredApsk.host[0].wlan[0].radio symbolErrorRate:histogram:underflows 0
scalar LayeredApsk.host[0].wlan[0].radio symbolErrorRate:histogram:overflows 0
scalar LayeredApsk.host[1].wlan[0].mac.dcf.channelAccess.pendingQueue queueingTime:histogram:count 100
scalar LayeredApsk.host[1].wlan[0].mac.dcf.channelAccess.pendingQueue queueingTime:histogram:sumweights 100
scalar LayeredApsk.host[1].wlan[0].mac.dcf.channelAccess.pendingQueue queueingTime:histogram:mean 0
scalar LayeredApsk.host[1].wlan[0].mac.dcf.channelAccess.pendingQueue queueingTime:histogram:stddev 0
scalar LayeredApsk.host[1].wlan[0].mac.dcf.channelAccess.pendingQueue queueingTime:histogram:min 0
scalar LayeredApsk.host[1].wlan[0].mac.dcf.channelAccess.pendingQueue queueingTime:histogram:max 0
scalar LayeredApsk.host[1].wlan[0].mac.dcf.channelAccess.pendingQueue queueingTime:histogram:numbins 50
scalar LayeredApsk.host[1].wlan[0].mac.dcf.channelAccess.pendingQueue queueingTime:histogram:rangemin -0.5
scalar LayeredApsk.host[1].wlan[0].mac.dcf.channelAccess.pendingQueue queueingTime:histogram:rangemax 0.5
scalar LayeredApsk.host[1].wlan[0].mac.dcf.channelAccess.pendingQueue queueingTime:histogram:underflows 0
scalar LayeredApsk.host[1].wlan[0].mac.dcf.channelAccess.pendingQueue queueingTime:histogram:overflows 0
scalar LayeredApsk.host[1].wlan[0].mac.dcf.channelAccess.pendingQueue outgoingPacketLengths:histogram:count 100
scalar LayeredApsk.host[1].wlan[0].mac.dcf.channelAccess.pendingQueue outgoingPacketLengths:histogram:sumweights 100
scalar LayeredApsk.host[1].wlan[0].mac.dcf.channelAccess.pendingQueue outgoingPacketLengths:histogram:mean 960
scalar LayeredApsk.host[1].wlan[0].mac.dcf.channelAccess.pendingQueue outgoingPacketLengths:histogram:stddev 0
scalar LayeredApsk.host[1].wlan[0].mac.dcf.channelAccess.pendingQueue outgoingPacketLengths:histogram:min 960
scalar LayeredApsk.host[1].wlan[0].mac.dcf.channelAccess.pendingQueue outgoingPacketLengths:histogram:max 960
scalar LayeredApsk.host[1].wlan[0].mac.dcf.channelAccess.pendingQueue outgoingPacketLengths:histogram:numbins 2
scalar LayeredApsk.host[1].wlan[0].mac.dcf.channelAccess.pendingQueue outgoingPacketLengths:histogram:rangemin 959
scalar LayeredApsk.host[1].wlan[0].mac.dcf.channelAccess.pendingQueue outgoingPacketLengths:histogram:rangemax 961
scalar LayeredApsk.host[1].wlan[0].mac.dcf.channelAccess.pendingQueue outgoingPacketLengths:histogram:underflows 0
scalar LayeredApsk.host[1].wlan[0].mac.dcf.channelAccess.pendingQueue outgoingPacketLengths:histogram:overflows 0
scalar LayeredApsk.host[1].wlan[0].mac.dcf.channelAccess.pendingQueue flowQueueingTime:histogram:count 0
scalar LayeredApsk.host[1].wlan[0].mac.dcf.channelAccess.pendingQueue flowQueueingTime:histogram:sumweights 0
scalar LayeredApsk.host[1].wlan[0].mac.dcf.channelAccess.pendingQueue flowQueueingTime:histogram:mean -nan
scalar LayeredApsk.host[1].wlan[0].mac.dcf.channelAccess.pendingQueue flowQueueingTime:histogram:stddev nan
scalar LayeredApsk.host[1].wlan[0].mac.dcf.channelAccess.pendingQueue flowQueueingTime:histogram:min nan
scalar LayeredApsk.host[1].wlan[0].mac.dcf.channelAccess.pendingQueue flowQueueingTime:histogram:max nan
scalar LayeredApsk.host[1].wlan[0].mac.dcf.channelAccess.pendingQueue flowQueueingTime:histogram:numbins 1
scalar LayeredApsk.host[1].wlan[0].mac.dcf.channelAccess.pendingQueue flowQueueingTime:histogram:rangemin 0
scalar LayeredApsk.host[1].wlan[0].mac.dcf.channelAccess.pendingQueue flowQueueingTime:histogram:rangemax 1
scalar LayeredApsk.host[1].wlan[0].mac.dcf.channelAccess.pendingQueue flowQueueingTime:histogram:underflows 0
scalar LayeredApsk.host[1].wlan[0].mac.dcf.channelAccess.pendingQueue flowQueueingTime:histogram:overflows 0
scalar LayeredApsk.host[1].wlan[0].mac.dcf.channelAccess.pendingQueue incomingPacketLengths:histogram:count 100
scalar LayeredApsk.host[1].wlan[0].mac.dcf.channelAccess.pendingQueue incomingPacketLengths:histogram:sumweights 100
scalar LayeredApsk.host[1].wlan[0].mac.dcf.channelAccess.pendingQueue incomingPacketLengths:histogram:mean 960
scalar LayeredApsk.host[1].wlan[0].mac.dcf.channelAccess.pendingQueue incomingPacketLengths:histogram:stddev 0
scalar LayeredApsk.host[1].wlan[0].mac.dcf.channelAccess.pendingQueue incomingPacketLengths:histogram:min 960
scalar LayeredApsk.host[1].wlan[0].mac.dcf.channelAccess.pendingQueue incomingPacketLengths:histogram:max 960
scalar LayeredApsk.host[1].wlan[0].mac.dcf.channelAccess.pendingQueue incomingPacketLengths:histogram:numbins 2
scalar LayeredApsk.host[1].wlan[0].mac.dcf.channelAccess.pendingQueue incomingPacketLengths:histogram:rangemin 959
scalar LayeredApsk.host[1].wlan[0].mac.dcf.channelAccess.pendingQueue incomingPacketLengths:histogram:rangemax 961
scalar LayeredApsk.host[1].wlan[0].mac.dcf.channelAccess.pendingQueue incomingPacketLengths:histogram:underflows 0
scalar LayeredApsk.host[1].wlan[0].mac.dcf.channelAccess.pendingQueue incomingPacketLengths:histogram:overflows 0
scalar LayeredApsk.host[1].wlan[0].mac.dcf.channelAccess.inProgressFrames queueingTime:histogram:count 100
scalar LayeredApsk.host[1].wlan[0].mac.dcf.channelAccess.inProgressFrames queueingTime:histogram:sumweights 100
scalar LayeredApsk.host[1].wlan[0].mac.dcf.channelAccess.inProgressFrames queueingTime:histogram:mean 4.4067175e-05
scalar LayeredApsk.host[1].wlan[0].mac.dcf.channelAccess.inProgressFrames queueingTime:histogram:stddev 0
scalar LayeredApsk.host[1].wlan[0].mac.dcf.channelAccess.inProgressFrames queueingTime:histogram:min 4.4067175e-05
scalar LayeredApsk.host[1].wlan[0].mac.dcf.channelAccess.inProgressFrames queueingTime:histogram:max 4.4067175e-05
scalar LayeredApsk.host[1].wlan[0].mac.dcf.channelAccess.inProgressFrames queueingTime:histogram:numbins 51
scalar LayeredApsk.host[1].wlan[0].mac.dcf.channelAccess.inProgressFrames queueingTime:histogram:rangemin 0
scalar LayeredApsk.host[1].wlan[0].mac.dcf.channelAccess.inProgressFrames queueingTime:histogram:rangemax 0.51
scalar LayeredApsk.host[1].wlan[0].mac.dcf.channelAccess.inProgressFrames queueingTime:histogram:underflows 0
scalar LayeredApsk.host[1].wlan[0].mac.dcf.channelAccess.inProgressFrames queueingTime:histogram:overflows 0
scalar LayeredApsk.host[1].wlan[0].mac.dcf frameSequenceDuration:histogram:count 100
scalar LayeredApsk.host[1].wlan[0].mac.dcf frameSequenceDuration:histogram:sumweights 100
scalar LayeredApsk.host[1].wlan[0].mac.dcf frameSequenceDuration:histogram:mean 4.4067175e-05
scalar LayeredApsk.host[1].wlan[0].mac.dcf frameSequenceDuration:histogram:stddev 0
scalar LayeredApsk.host[1].wlan[0].mac.dcf frameSequenceDuration:histogram:min 4.4067175e-05
scalar LayeredApsk.host[1].wlan[0].mac.dcf frameSequenceDuration:histogram:max 4.4067175e-05
scalar LayeredApsk.host[1].wlan[0].mac.dcf frameSequenceDuration:histogram:numbins 51
scalar LayeredApsk.host[1].wlan[0].mac.dcf frameSequenceDuration:histogram:rangemin 0
scalar LayeredApsk.host[1].wlan[0].mac.dcf frameSequenceDuration:histogram:rangemax 0.51
scalar LayeredApsk.host[1].wlan[0].mac.dcf frameSequenceDuration:histogram:underflows 0
scalar LayeredApsk.host[1].wlan[0].mac.dcf frameSequenceDuration:histogram:overflows 0
scalar LayeredApsk.host[1].wlan[0].mac.dcf frameSequenceNumPackets:histogram:count 100
scalar LayeredApsk.host[1].wlan[0].mac.dcf frameSequenceNumPackets:histogram:sumweights 100
scalar LayeredApsk.host[1].wlan[0].mac.dcf frameSequenceNumPackets:histogram:mean 2
scalar LayeredApsk.host[1].wlan[0].mac.dcf frameSequenceNumPackets:histogram:stddev 0
scalar LayeredApsk.host[1].wlan[0].mac.dcf frameSequenceNumPackets:histogram:min 2
scalar LayeredApsk.host[1].wlan[0].mac.dcf frameSequenceNumPackets:histogram:max 2
scalar LayeredApsk.host[1].wlan[0].mac.dcf frameSequenceNumPackets:histogram:numbins 2
scalar LayeredApsk.host[1].wlan[0].mac.dcf frameSequenceNumPackets:histogram:rangemin 1
scalar LayeredApsk.host[1].wlan[0].mac.dcf frameSequenceNumPackets:histogram:rangemax 3
scalar LayeredApsk.host[1].wlan[0].mac.dcf frameSequenceNumPackets:histogram:underflows 0
scalar LayeredApsk.host[1].wlan[0].mac.dcf frameSequenceNumPackets:histogram:overflows 0
scalar LayeredApsk.host[1].wlan[0].radio minSnir:histogram:count 200
scalar LayeredApsk.host[1].wlan[0].radio minSnir:histogram:sumweights 200
scalar LayeredApsk.host[1].wlan[0].radio minSnir:histogram:mean 81.660836448915
scalar LayeredApsk.host[1].wlan[0].radio minSnir:histogram:stddev 0
scalar LayeredApsk.host[1].wlan[0].radio minSnir:histogram:min 81.660836448913
scalar LayeredApsk.host[1].wlan[0].radio minSnir:histogram:max 81.660836448913
scalar LayeredApsk.host[1].wlan[0].radio minSnir:histogram:numbins 51
scalar LayeredApsk.host[1].wlan[0].radio minSnir:histogram:rangemin 81.16
scalar LayeredApsk.host[1].wlan[0].radio minSnir:histogram:rangemax 82.18
scalar LayeredApsk.host[1].wlan[0].radio minSnir:histogram:underflows 0
scalar LayeredApsk.host[1].wlan[0].radio minSnir:histogram:overflows 0
scalar LayeredApsk.host[1].wlan[0].radio packetErrorRate:histogram:count 0
scalar LayeredApsk.host[1].wlan[0].radio packetErrorRate:histogram:sumweights 0
scalar LayeredApsk.host[1].wlan[0].radio packetErrorRate:histogram:mean -nan
scalar LayeredApsk.host[1].wlan[0].radio packetErrorRate:histogram:stddev nan
scalar LayeredApsk.host[1].wlan[0].radio packetErrorRate:histogram:min nan
scalar LayeredApsk.host[1].wlan[0].radio packetErrorRate:histogram:max nan
scalar LayeredApsk.host[1].wlan[0].radio packetErrorRate:histogram:numbins 1
scalar LayeredApsk.host[1].wlan[0].radio packetErrorRate:histogram:rangemin 0
scalar LayeredApsk.host[1].wlan[0].radio packetErrorRate:histogram:rangemax 1
scalar LayeredApsk.host[1].wlan[0].radio packetErrorRate:histogram:underflows 0
scalar LayeredApsk.host[1].wlan[0].radio packetErrorRate:histogram:overflows 0
scalar LayeredApsk.host[1].wlan[0].radio bitErrorRate:histogram:count 0
scalar LayeredApsk.host[1].wlan[0].radio bitErrorRate:histogram:sumweights 0
scalar LayeredApsk.host[1].wlan[0].radio bitErrorRate:histogram:mean -nan
scalar LayeredApsk.host[1].wlan[0].radio bitErrorRate:histogram:stddev nan
scalar LayeredApsk.host[1].wlan[0].radio bitErrorRate:histogram:min nan
scalar LayeredApsk.host[1].wlan[0].radio bitErrorRate:histogram:max nan
scalar LayeredApsk.host[1].wlan[0].radio bitErrorRate:histogram:numbins 1
scalar LayeredApsk.host[1].wlan[0].radio bitErrorRate:histogram:rangemin 0
scalar LayeredApsk.host[1].wlan[0].radio bitErrorRate:histogram:rangemax 1
scalar LayeredApsk.host[1].wlan[0].radio bitErrorRate:histogram:underflows 0
scalar LayeredApsk.host[1].wlan[0].radio bitErrorRate:histogram:overflows 0
scalar LayeredApsk.host[1].wlan[0].radio symbolErrorRate:histogram:count 0
scalar LayeredApsk.host[1].wlan[0].radio symbolErrorRate:histogram:sumweights 0
scalar LayeredApsk.host[1].wlan[0].radio symbolErrorRate:histogram:mean -nan
scalar LayeredApsk.host[1].wlan[0].radio symbolErrorRate:histogram:stddev nan
scalar LayeredApsk.host[1].wlan[0].radio symbolErrorRate:histogram:min nan
scalar LayeredApsk.host[1].wlan[0].radio symbolErrorRate:histogram:max nan
scalar LayeredApsk.host[1].wlan[0].radio symbolErrorRate:histogram:numbins 1
scalar LayeredApsk.host[1].wlan[0].radio symbolErrorRate:histogram:rangemin 0
scalar LayeredApsk.host[1].wlan[0].radio symbolErrorRate:histogram:rangemax 1
scalar LayeredApsk.host[1].wlan[0].radio symbolErrorRate:histogram:underflows 0
scalar LayeredApsk.host[1].wlan[0].radio symbolErrorRate:histogram:overflows 0
scalar LayeredApsk.host[1].app[0] rtt:histogram:count 100
scalar LayeredApsk.host[1].app[0] rtt:histogram:sumweights 100
scalar LayeredApsk.host[1].app[0] rtt:histogram:mean 0.000396311619
scalar LayeredApsk.host[1].app[0] rtt:histogram:stddev 0.00018970886786193
scalar LayeredApsk.host[1].app[0] rtt:histogram:min 0.000122511619
scalar LayeredApsk.host[1].app[0] rtt:histogram:max 0.000742511619
scalar LayeredApsk.host[1].app[0] rtt:histogram:numbins 90
scalar LayeredApsk.host[1].app[0] rtt:histogram:rangemin 0
scalar LayeredApsk.host[1].app[0] rtt:histogram:rangemax 0.0009
scalar LayeredApsk.host[1].app[0] rtt:histogram:underflows 0
scalar LayeredApsk.host[1].app[0] rtt:histogram:overflows 0
statistic LayeredApsk.host[0].wlan[0].mac.dcf.channelAccess.pendingQueue queueingTime:histogram
field count 100
field mean 0.000338688889
field stddev 0.00018970886786192
field min 6.4888889e-05
field max 0.000684888889
field sum 0.0338688889
field sqrsum 1.5033972353205e-05
bin	-inf	0
bin	0	0
bin	1e-05	0
bin	2e-05	0
bin	3e-05	0
bin	4e-05	0
bin	5e-05	0
bin	6e-05	7
bin	7e-05	0
bin	8e-05	2
bin	9e-05	0
bin	0.0001	5
bin	0.00011	0
bin	0.00012	8
bin	0.00013	0
bin	0.00014	4
bin	0.00015	0
bin	0.00016	2
bin	0.00017	0
bin	0.00018	3
bin	0.00019	0
bin	0.0002	1
bin	0.00021	0
bin	0.00022	2
bin	0.00023	0
bin	0.00024	8
bin	0.00025	0
bin	0.00026	2
bin	0.00027	0
bin	0.00028	3
bin	0.00029	0
bin	0.0003	0
bin	0.00031	0
bin	0.00032	3
bin	0.00033	0
bin	0.00034	3
bin	0.00035	0
bin	0.00036	3
bin	0.00037	0
bin	0.00038	0
bin	0.00039	0
bin	0.0004	2
bin	0.00041	0
bin	0.00042	4
bin	0.00043	0
bin	0.00044	6
bin	0.00045	0
bin	0.00046	3
bin	0.00047	0
bin	0.00048	5
bin	0.00049	0
bin	0.0005	0
bin	0.00051	0
bin	0.00052	5
bin	0.00053	0
bin	0.00054	5
bin	0.00055	0
bin	0.00056	1
bin	0.00057	0
bin	0.00058	3
bin	0.00059	0
bin	0.0006	3
bin	0.00061	0
bin	0.00062	0
bin	0.00063	0
bin	0.00064	2
bin	0.00065	0
bin	0.00066	2
bin	0.00067	0
bin	0.00068	3
bin	0.00069	0
bin	0.0007	0
bin	0.00071	0
bin	0.00072	0
bin	0.00073	0
bin	0.00074	0
bin	0.00075	0
bin	0.00076	0
bin	0.00077	0
bin	0.00078	0
bin	0.00079	0
bin	0.0008	0
bin	0.00081	0
bin	0.00082	0
bin	0.00083	0
bin	0.00084	0
statistic LayeredApsk.host[0].wlan[0].mac.dcf.channelAccess.pendingQueue outgoingPacketLengths:histogram
field count 100
field mean 960
field stddev 0
field min 960
field max 960
field sum 96000
field sqrsum 92160000
bin	-inf	0
bin	959	0
bin	960	100
bin	961	0
statistic LayeredApsk.host[0].wlan[0].mac.dcf.channelAccess.pendingQueue flowQueueingTime:histogram
field count 0
field mean -nan
field stddev nan
field min nan
field max nan
field sum 0
field sqrsum 0
bin	-inf	0
bin	0	0
bin	1	0
statistic LayeredApsk.host[0].wlan[0].mac.dcf.channelAccess.pendingQueue incomingPacketLengths:histogram
field count 100
field mean 960
field stddev 0
field min 960
field max 960
field sum 96000
field sqrsum 92160000
bin	-inf	0
bin	959	0
bin	960	100
bin	961	0
statistic LayeredApsk.host[0].wlan[0].mac.dcf.channelAccess.inProgressFrames queueingTime:histogram
field count 100
field mean 4.4067175e-05
field stddev 0
field min 4.4067175e-05
field max 4.4067175e-05
field sum 0.0044067175
field sqrsum 1.9419159124806e-07
bin	-inf	0
bin	0	100
bin	0.01	0
bin	0.02	0
bin	0.03	0
bin	0.04	0
bin	0.05	0
bin	0.06	0
bin	0.07	0
bin	0.08	0
bin	0.09	0
bin	0.1	0
bin	0.11	0
bin	0.12	0
bin	0.13	0
bin	0.14	0
bin	0.15	0
bin	0.16	0
bin	0.17	0
bin	0.18	0
bin	0.19	0
bin	0.2	0
bin	0.21	0
bin	0.22	0
bin	0.23	0
bin	0.24	0
bin	0.25	0
bin	0.26	0
bin	0.27	0
bin	0.28	0
bin	0.29	0
bin	0.3	0
bin	0.31	0
bin	0.32	0
bin	0.33	0
bin	0.34	0
bin	0.35	0
bin	0.36	0
bin	0.37	0
bin	0.38	0
bin	0.39	0
bin	0.4	0
bin	0.41	0
bin	0.42	0
bin	0.43	0
bin	0.44	0
bin	0.45	0
bin	0.46	0
bin	0.47	0
bin	0.48	0
bin	0.49	0
bin	0.5	0
bin	0.51	0
statistic LayeredApsk.host[0].wlan[0].mac.dcf frameSequenceDuration:histogram
field count 100
field mean 4.4067175e-05
field stddev 0
field min 4.4067175e-05
field max 4.4067175e-05
field sum 0.0044067175
field sqrsum 1.9419159124806e-07
bin	-inf	0
bin	0	100
bin	0.01	0
bin	0.02	0
bin	0.03	0
bin	0.04	0
bin	0.05	0
bin	0.06	0
bin	0.07	0
bin	0.08	0
bin	0.09	0
bin	0.1	0
bin	0.11	0
bin	0.12	0
bin	0.13	0
bin	0.14	0
bin	0.15	0
bin	0.16	0
bin	0.17	0
bin	0.18	0
bin	0.19	0
bin	0.2	0
bin	0.21	0
bin	0.22	0
bin	0.23	0
bin	0.24	0
bin	0.25	0
bin	0.26	0
bin	0.27	0
bin	0.28	0
bin	0.29	0
bin	0.3	0
bin	0.31	0
bin	0.32	0
bin	0.33	0
bin	0.34	0
bin	0.35	0
bin	0.36	0
bin	0.37	0
bin	0.38	0
bin	0.39	0
bin	0.4	0
bin	0.41	0
bin	0.42	0
bin	0.43	0
bin	0.44	0
bin	0.45	0
bin	0.46	0
bin	0.47	0
bin	0.48	0
bin	0.49	0
bin	0.5	0
bin	0.51	0
statistic LayeredApsk.host[0].wlan[0].mac.dcf frameSequenceNumPackets:histogram
field count 100
field mean 2
field stddev 0
field min 2
field max 2
field sum 200
field sqrsum 400
bin	-inf	0
bin	1	0
bin	2	100
bin	3	0
statistic LayeredApsk.host[0].wlan[0].radio minSnir:histogram
field count 200
field mean 81.660836448915
field stddev 0
field min 81.660836448913
field max 81.660836448913
field sum 16332.167289783
field sqrsum 1333698.4419072
bin	-inf	0
bin	81.16	0
bin	81.18	0
bin	81.2	0
bin	81.22	0
bin	81.24	0
bin	81.26	0
bin	81.28	0
bin	81.3	0
bin	81.32	0
bin	81.34	0
bin	81.36	0
bin	81.38	0
bin	81.4	0
bin	81.42	0
bin	81.44	0
bin	81.46	0
bin	81.48	0
bin	81.5	0
bin	81.52	0
bin	81.54	0
bin	81.56	0
bin	81.58	0
bin	81.6	0
bin	81.62	0
bin	81.64	0
bin	81.66	200
bin	81.68	0
bin	81.7	0
bin	81.72	0
bin	81.74	0
bin	81.76	0
bin	81.78	0
bin	81.8	0
bin	81.82	0
bin	81.84	0
bin	81.86	0
bin	81.88	0
bin	81.9	0
bin	81.92	0
bin	81.94	0
bin	81.96	0
bin	81.98	0
bin	82	0
bin	82.02	0
bin	82.04	0
bin	82.06	0
bin	82.08	0
bin	82.1	0
bin	82.12	0
bin	82.14	0
bin	82.16	0
bin	82.18	0
statistic LayeredApsk.host[0].wlan[0].radio packetErrorRate:histogram
field count 0
field mean -nan
field stddev nan
field min nan
field max nan
field sum 0
field sqrsum 0
bin	-inf	0
bin	0	0
bin	1	0
statistic LayeredApsk.host[0].wlan[0].radio bitErrorRate:histogram
field count 0
field mean -nan
field stddev nan
field min nan
field max nan
field sum 0
field sqrsum 0
bin	-inf	0
bin	0	0
bin	1	0
statistic LayeredApsk.host[0].wlan[0].radio symbolErrorRate:histogram
field count 0
field mean -nan
field stddev nan
field min nan
field max nan
field sum 0
field sqrsum 0
bin	-inf	0
bin	0	0
bin	1	0
statistic LayeredApsk.host[1].wlan[0].mac.dcf.channelAccess.pendingQueue queueingTime:histogram
field count 100
field mean 0
field stddev 0
field min 0
field max 0
field sum 0
field sqrsum 0
bin	-inf	0
bin	-0.5	0
bin	-0.48	0
bin	-0.46	0
bin	-0.44	0
bin	-0.42	0
bin	-0.4	0
bin	-0.38	0
bin	-0.36	0
bin	-0.34	0
bin	-0.32	0
bin	-0.3	0
bin	-0.28	0
bin	-0.26	0
bin	-0.24	0
bin	-0.22	0
bin	-0.2	0
bin	-0.18	0
bin	-0.16	0
bin	-0.14	0
bin	-0.12	0
bin	-0.1	0
bin	-0.08	0
bin	-0.06	0
bin	-0.04	0
bin	-0.02	0
bin	0	100
bin	0.02	0
bin	0.04	0
bin	0.06	0
bin	0.08	0
bin	0.1	0
bin	0.12	0
bin	0.14	0
bin	0.16	0
bin	0.18	0
bin	0.2	0
bin	0.22	0
bin	0.24	0
bin	0.26	0
bin	0.28	0
bin	0.3	0
bin	0.32	0
bin	0.34	0
bin	0.36	0
bin	0.38	0
bin	0.4	0
bin	0.42	0
bin	0.44	0
bin	0.46	0
bin	0.48	0
bin	0.5	0
statistic LayeredApsk.host[1].wlan[0].mac.dcf.channelAccess.pendingQueue outgoingPacketLengths:histogram
field count 100
field mean 960
field stddev 0
field min 960
field max 960
field sum 96000
field sqrsum 92160000
bin	-inf	0
bin	959	0
bin	960	100
bin	961	0
statistic LayeredApsk.host[1].wlan[0].mac.dcf.channelAccess.pendingQueue flowQueueingTime:histogram
field count 0
field mean -nan
field stddev nan
field min nan
field max nan
field sum 0
field sqrsum 0
bin	-inf	0
bin	0	0
bin	1	0
statistic LayeredApsk.host[1].wlan[0].mac.dcf.channelAccess.pendingQueue incomingPacketLengths:histogram
field count 100
field mean 960
field stddev 0
field min 960
field max 960
field sum 96000
field sqrsum 92160000
bin	-inf	0
bin	959	0
bin	960	100
bin	961	0
statistic LayeredApsk.host[1].wlan[0].mac.dcf.channelAccess.inProgressFrames queueingTime:histogram
field count 100
field mean 4.4067175e-05
field stddev 0
field min 4.4067175e-05
field max 4.4067175e-05
field sum 0.0044067175
field sqrsum 1.9419159124806e-07
bin	-inf	0
bin	0	100
bin	0.01	0
bin	0.02	0
bin	0.03	0
bin	0.04	0
bin	0.05	0
bin	0.06	0
bin	0.07	0
bin	0.08	0
bin	0.09	0
bin	0.1	0
bin	0.11	0
bin	0.12	0
bin	0.13	0
bin	0.14	0
bin	0.15	0
bin	0.16	0
bin	0.17	0
bin	0.18	0
bin	0.19	0
bin	0.2	0
bin	0.21	0
bin	0.22	0
bin	0.23	0
bin	0.24	0
bin	0.25	0
bin	0.26	0
bin	0.27	0
bin	0.28	0
bin	0.29	0
bin	0.3	0
bin	0.31	0
bin	0.32	0
bin	0.33	0
bin	0.34	0
bin	0.35	0
bin	0.36	0
bin	0.37	0
bin	0.38	0
bin	0.39	0
bin	0.4	0
bin	0.41	0
bin	0.42	0
bin	0.43	0
bin	0.44	0
bin	0.45	0
bin	0.46	0
bin	0.47	0
bin	0.48	0
bin	0.49	0
bin	0.5	0
bin	0.51	0
statistic LayeredApsk.host[1].wlan[0].mac.dcf frameSequenceDuration:histogram
field count 100
field mean 4.4067175e-05
field stddev 0
field min 4.4067175e-05
field max 4.4067175e-05
field sum 0.0044067175
field sqrsum 1.9419159124806e-07
bin	-inf	0
bin	0	100
bin	0.01	0
bin	0.02	0
bin	0.03	0
bin	0.04	0
bin	0.05	0
bin	0.06	0
bin	0.07	0
bin	0.08	0
bin	0.09	0
bin	0.1	0
bin	0.11	0
bin	0.12	0
bin	0.13	0
bin	0.14	0
bin	0.15	0
bin	0.16	0
bin	0.17	0
bin	0.18	0
bin	0.19	0
bin	0.2	0
bin	0.21	0
bin	0.22	0
bin	0.23	0
bin	0.24	0
bin	0.25	0
bin	0.26	0
bin	0.27	0
bin	0.28	0
bin	0.29	0
bin	0.3	0
bin	0.31	0
bin	0.32	0
bin	0.33	0
bin	0.34	0
bin	0.35	0
bin	0.36	0
bin	0.37	0
bin	0.38	0
bin	0.39	0
bin	0.4	0
bin	0.41	0
bin	0.42	0
bin	0.43	0
bin	0.44	0
bin	0.45	0
bin	0.46	0
bin	0.47	0
bin	0.48	0
bin	0.49	0
bin	0.5	0
bin	0.51	0
statistic LayeredApsk.host[1].wlan[0].mac.dcf frameSequenceNumPackets:histogram
field count 100
field mean 2
field stddev 0
field min 2
field max 2
field sum 200
field sqrsum 400
bin	-inf	0
bin	1	0
bin	2	100
bin	3	0
statistic LayeredApsk.host[1].wlan[0].radio minSnir:histogram
field count 200
field mean 81.660836448915
field stddev 0
field min 81.660836448913
field max 81.660836448913
field sum 16332.167289783
field sqrsum 1333698.4419072
bin	-inf	0
bin	81.16	0
bin	81.18	0
bin	81.2	0
bin	81.22	0
bin	81.24	0
bin	81.26	0
bin	81.28	0
bin	81.3	0
bin	81.32	0
bin	81.34	0
bin	81.36	0
bin	81.38	0
bin	81.4	0
bin	81.42	0
bin	81.44	0
bin	81.46	0
bin	81.48	0
bin	81.5	0
bin	81.52	0
bin	81.54	0
bin	81.56	0
bin	81.58	0
bin	81.6	0
bin	81.62	0
bin	81.64	0
bin	81.66	200
bin	81.68	0
bin	81.7	0
bin	81.72	0
bin	81.74	0
bin	81.76	0
bin	81.78	0
bin	81.8	0
bin	81.82	0
bin	81.84	0
bin	81.86	0
bin	81.88	0
bin	81.9	0
bin	81.92	0
bin	81.94	0
bin	81.96	0
bin	81.98	0
bin	82	0
bin	82.02	0
bin	82.04	0
bin	82.06	0
bin	82.08	0
bin	82.1	0
bin	82.12	0
bin	82.14	0
bin	82.16	0
bin	82.18	0
statistic LayeredApsk.host[1].wlan[0].radio packetErrorRate:histogram
field count 0
field mean -nan
field stddev nan
field min nan
field max nan
field sum 0
field sqrsum 0
bin	-inf	0
bin	0	0
bin	1	0
statistic LayeredApsk.host[1].wlan[0].radio bitErrorRate:histogram
field count 0
field mean -nan
field stddev nan
field min nan
field max nan
field sum 0
field sqrsum 0
bin	-inf	0
bin	0	0
bin	1	0
statistic LayeredApsk.host[1].wlan[0].radio symbolErrorRate:histogram
field count 0
field mean -nan
field stddev nan
field min nan
field max nan
field sum 0
field sqrsum 0
bin	-inf	0
bin	0	0
bin	1	0
statistic LayeredApsk.host[1].app[0] rtt:histogram
field count 100
field mean 0.000396311619
field stddev 0.00018970886786193
field min 0.000122511619
field max 0.000742511619
field sum 0.0396311619
field sqrsum 1.926924593544e-05
bin	-inf	0
bin	0	0
bin	1e-05	0
bin	2e-05	0
bin	3e-05	0
bin	4e-05	0
bin	5e-05	0
bin	6e-05	0
bin	7e-05	0
bin	8e-05	0
bin	9e-05	0
bin	0.0001	0
bin	0.00011	0
bin	0.00012	7
bin	0.00013	0
bin	0.00014	2
bin	0.00015	0
bin	0.00016	5
bin	0.00017	0
bin	0.00018	8
bin	0.00019	0
bin	0.0002	4
bin	0.00021	0
bin	0.00022	2
bin	0.00023	0
bin	0.00024	3
bin	0.00025	0
bin	0.00026	1
bin	0.00027	0
bin	0.00028	2
bin	0.00029	0
bin	0.0003	8
bin	0.00031	0
bin	0.00032	2
bin	0.00033	0
bin	0.00034	3
bin	0.00035	0
bin	0.00036	0
bin	0.00037	0
bin	0.00038	3
bin	0.00039	0
bin	0.0004	3
bin	0.00041	0
bin	0.00042	3
bin	0.00043	0
bin	0.00044	0
bin	0.00045	0
bin	0.00046	2
bin	0.00047	0
bin	0.00048	4
bin	0.00049	0
bin	0.0005	6
bin	0.00051	0
bin	0.00052	3
bin	0.00053	0
bin	0.00054	5
bin	0.00055	0
bin	0.00056	0
bin	0.00057	0
bin	0.00058	5
bin	0.00059	0
bin	0.0006	5
bin	0.00061	0
bin	0.00062	1
bin	0.00063	0
bin	0.00064	3
bin	0.00065	0
bin	0.00066	3
bin	0.00067	0
bin	0.00068	0
bin	0.00069	0
bin	0.0007	2
bin	0.00071	0
bin	0.00072	2
bin	0.00073	0
bin	0.00074	3
bin	0.00075	0
bin	0.00076	0
bin	0.00077	0
bin	0.00078	0
bin	0.00079	0
bin	0.0008	0
bin	0.00081	0
bin	0.00082	0
bin	0.00083	0
bin	0.00084	0
bin	0.00085	0
bin	0.00086	0
bin	0.00087	0
bin	0.00088	0
bin	0.00089	0
bin	0.0009	0
scalar LayeredApsk.host[0].lo[0].lo rcvdPkFromHl:vector(packetBytes):count 0
scalar LayeredApsk.host[0].lo[0].lo rcvdPkFromHl:vector(packetBytes):sum 0
scalar LayeredApsk.host[0].lo[0].lo rcvdPkFromHl:vector(packetBytes):sumweights 0
scalar LayeredApsk.host[0].lo[0].lo rcvdPkFromHl:vector(packetBytes):mean -nan
scalar LayeredApsk.host[0].lo[0].lo rcvdPkFromHl:vector(packetBytes):stddev nan
scalar LayeredApsk.host[0].lo[0].lo rcvdPkFromHl:vector(packetBytes):min inf
scalar LayeredApsk.host[0].lo[0].lo rcvdPkFromHl:vector(packetBytes):max -inf
scalar LayeredApsk.host[0].lo[0].lo rcvdPkFromHl:vector(packetBytes):starttime nan
scalar LayeredApsk.host[0].lo[0].lo rcvdPkFromHl:vector(packetBytes):endtime nan
scalar LayeredApsk.host[0].lo[0].lo passedUpPk:vector(packetBytes):count 0
scalar LayeredApsk.host[0].lo[0].lo passedUpPk:vector(packetBytes):sum 0
scalar LayeredApsk.host[0].lo[0].lo passedUpPk:vector(packetBytes):sumweights 0
scalar LayeredApsk.host[0].lo[0].lo passedUpPk:vector(packetBytes):mean -nan
scalar LayeredApsk.host[0].lo[0].lo passedUpPk:vector(packetBytes):stddev nan
scalar LayeredApsk.host[0].lo[0].lo passedUpPk:vector(packetBytes):min inf
scalar LayeredApsk.host[0].lo[0].lo passedUpPk:vector(packetBytes):max -inf
scalar LayeredApsk.host[0].lo[0].lo passedUpPk:vector(packetBytes):starttime nan
scalar LayeredApsk.host[0].lo[0].lo passedUpPk:vector(packetBytes):endtime nan
scalar LayeredApsk.host[0].lo[0] packetDropInterfaceDown:vector(packetBytes):count 0
scalar LayeredApsk.host[0].lo[0] packetDropInterfaceDown:vector(packetBytes):sum 0
scalar LayeredApsk.host[0].lo[0] packetDropInterfaceDown:vector(packetBytes):sumweights 0
scalar LayeredApsk.host[0].lo[0] packetDropInterfaceDown:vector(packetBytes):mean -nan
scalar LayeredApsk.host[0].lo[0] packetDropInterfaceDown:vector(packetBytes):stddev nan
scalar LayeredApsk.host[0].lo[0] packetDropInterfaceDown:vector(packetBytes):min inf
scalar LayeredApsk.host[0].lo[0] packetDropInterfaceDown:vector(packetBytes):max -inf
scalar LayeredApsk.host[0].lo[0] packetDropInterfaceDown:vector(packetBytes):starttime nan
scalar LayeredApsk.host[0].lo[0] packetDropInterfaceDown:vector(packetBytes):endtime nan
scalar LayeredApsk.host[0].lo[0] packetDropNoCarrier:vector(packetBytes):count 0
scalar LayeredApsk.host[0].lo[0] packetDropNoCarrier:vector(packetBytes):sum 0
scalar LayeredApsk.host[0].lo[0] packetDropNoCarrier:vector(packetBytes):sumweights 0
scalar LayeredApsk.host[0].lo[0] packetDropNoCarrier:vector(packetBytes):mean -nan
scalar LayeredApsk.host[0].lo[0] packetDropNoCarrier:vector(packetBytes):stddev nan
scalar LayeredApsk.host[0].lo[0] packetDropNoCarrier:vector(packetBytes):min inf
scalar LayeredApsk.host[0].lo[0] packetDropNoCarrier:vector(packetBytes):max -inf
scalar LayeredApsk.host[0].lo[0] packetDropNoCarrier:vector(packetBytes):starttime nan
scalar LayeredApsk.host[0].lo[0] packetDropNoCarrier:vector(packetBytes):endtime nan
scalar LayeredApsk.host[0].wlan[0].mac.dcf.channelAccess.pendingQueue queueLength:vector:count 0
scalar LayeredApsk.host[0].wlan[0].mac.dcf.channelAccess.pendingQueue queueLength:vector:sum 0
scalar LayeredApsk.host[0].wlan[0].mac.dcf.channelAccess.pendingQueue queueLength:vector:sumweights 0
scalar LayeredApsk.host[0].wlan[0].mac.dcf.channelAccess.pendingQueue queueLength:vector:mean -nan
scalar LayeredApsk.host[0].wlan[0].mac.dcf.channelAccess.pendingQueue queueLength:vector:stddev nan
scalar LayeredApsk.host[0].wlan[0].mac.dcf.channelAccess.pendingQueue queueLength:vector:min inf
scalar LayeredApsk.host[0].wlan[0].mac.dcf.channelAccess.pendingQueue queueLength:vector:max -inf
scalar LayeredApsk.host[0].wlan[0].mac.dcf.channelAccess.pendingQueue queueLength:vector:starttime nan
scalar LayeredApsk.host[0].wlan[0].mac.dcf.channelAccess.pendingQueue queueLength:vector:endtime nan
scalar LayeredApsk.host[0].wlan[0].mac.dcf.channelAccess.pendingQueue queueBitLength:vector:count 0
scalar LayeredApsk.host[0].wlan[0].mac.dcf.channelAccess.pendingQueue queueBitLength:vector:sum 0
scalar LayeredApsk.host[0].wlan[0].mac.dcf.channelAccess.pendingQueue queueBitLength:vector:sumweights 0
scalar LayeredApsk.host[0].wlan[0].mac.dcf.channelAccess.pendingQueue queueBitLength:vector:mean -nan
scalar LayeredApsk.host[0].wlan[0].mac.dcf.channelAccess.pendingQueue queueBitLength:vector:stddev nan
scalar LayeredApsk.host[0].wlan[0].mac.dcf.channelAccess.pendingQueue queueBitLength:vector:min inf
scalar LayeredApsk.host[0].wlan[0].mac.dcf.channelAccess.pendingQueue queueBitLength:vector:max -inf
scalar LayeredApsk.host[0].wlan[0].mac.dcf.channelAccess.pendingQueue queueBitLength:vector:starttime nan
scalar LayeredApsk.host[0].wlan[0].mac.dcf.channelAccess.pendingQueue queueBitLength:vector:endtime nan
scalar LayeredApsk.host[0].wlan[0].mac.dcf.channelAccess.pendingQueue queueingTime:vector:count 0
scalar LayeredApsk.host[0].wlan[0].mac.dcf.channelAccess.pendingQueue queueingTime:vector:sum 0
scalar LayeredApsk.host[0].wlan[0].mac.dcf.channelAccess.pendingQueue queueingTime:vector:sumweights 0
scalar LayeredApsk.host[0].wlan[0].mac.dcf.channelAccess.pendingQueue queueingTime:vector:mean -nan
scalar LayeredApsk.host[0].wlan[0].mac.dcf.channelAccess.pendingQueue queueingTime:vector:stddev nan
scalar LayeredApsk.host[0].wlan[0].mac.dcf.channelAccess.pendingQueue queueingTime:vector:min inf
scalar LayeredApsk.host[0].wlan[0].mac.dcf.channelAccess.pendingQueue queueingTime:vector:max -inf
scalar LayeredApsk.host[0].wlan[0].mac.dcf.channelAccess.pendingQueue queueingTime:vector:starttime nan
scalar LayeredApsk.host[0].wlan[0].mac.dcf.channelAccess.pendingQueue queueingTime:vector:endtime nan
scalar LayeredApsk.host[0].wlan[0].mac.dcf.channelAccess.pendingQueue incomingPacketLengths:vector:count 0
scalar LayeredApsk.host[0].wlan[0].mac.dcf.channelAccess.pendingQueue incomingPacketLengths:vector:sum 0
scalar LayeredApsk.host[0].wlan[0].mac.dcf.channelAccess.pendingQueue incomingPacketLengths:vector:sumweights 0
scalar LayeredApsk.host[0].wlan[0].mac.dcf.channelAccess.pendingQueue incomingPacketLengths:vector:mean -nan
scalar LayeredApsk.host[0].wlan[0].mac.dcf.channelAccess.pendingQueue incomingPacketLengths:vector:stddev nan
scalar LayeredApsk.host[0].wlan[0].mac.dcf.channelAccess.pendingQueue incomingPacketLengths:vector:min inf
scalar LayeredApsk.host[0].wlan[0].mac.dcf.channelAccess.pendingQueue incomingPacketLengths:vector:max -inf
scalar LayeredApsk.host[0].wlan[0].mac.dcf.channelAccess.pendingQueue incomingPacketLengths:vector:starttime nan
scalar LayeredApsk.host[0].wlan[0].mac.dcf.channelAccess.pendingQueue incomingPacketLengths:vector:endtime nan
scalar LayeredApsk.host[0].wlan[0].mac.dcf.channelAccess.pendingQueue incomingDataRate:vector:count 0
scalar LayeredApsk.host[0].wlan[0].mac.dcf.channelAccess.pendingQueue incomingDataRate:vector:sum 0
scalar LayeredApsk.host[0].wlan[0].mac.dcf.channelAccess.pendingQueue incomingDataRate:vector:sumweights 0
scalar LayeredApsk.host[0].wlan[0].mac.dcf.channelAccess.pendingQueue incomingDataRate:vector:mean -nan
scalar LayeredApsk.host[0].wlan[0].mac.dcf.channelAccess.pendingQueue incomingDataRate:vector:stddev nan
scalar LayeredApsk.host[0].wlan[0].mac.dcf.channelAccess.pendingQueue incomingDataRate:vector:min inf
scalar LayeredApsk.host[0].wlan[0].mac.dcf.channelAccess.pendingQueue incomingDataRate:vector:max -inf
scalar LayeredApsk.host[0].wlan[0].mac.dcf.channelAccess.pendingQueue incomingDataRate:vector:starttime nan
scalar LayeredApsk.host[0].wlan[0].mac.dcf.channelAccess.pendingQueue incomingDataRate:vector:endtime nan
scalar LayeredApsk.host[0].wlan[0].mac.dcf.channelAccess.pendingQueue outgoingPacketLengths:vector:count 0
scalar LayeredApsk.host[0].wlan[0].mac.dcf.channelAccess.pendingQueue outgoingPacketLengths:vector:sum 0
scalar LayeredApsk.host[0].wlan[0].mac.dcf.channelAccess.pendingQueue outgoingPacketLengths:vector:sumweights 0
scalar LayeredApsk.host[0].wlan[0].mac.dcf.channelAccess.pendingQueue outgoingPacketLengths:vector:mean -nan
scalar LayeredApsk.host[0].wlan[0].mac.dcf.channelAccess.pendingQueue outgoingPacketLengths:vector:stddev nan
scalar LayeredApsk.host[0].wlan[0].mac.dcf.channelAccess.pendingQueue outgoingPacketLengths:vector:min inf
scalar LayeredApsk.host[0].wlan[0].mac.dcf.channelAccess.pendingQueue outgoingPacketLengths:vector:max -inf
scalar LayeredApsk.host[0].wlan[0].mac.dcf.channelAccess.pendingQueue outgoingPacketLengths:vector:starttime nan
scalar LayeredApsk.host[0].wlan[0].mac.dcf.channelAccess.pendingQueue outgoingPacketLengths:vector:endtime nan
scalar LayeredApsk.host[0].wlan[0].mac.dcf.channelAccess.pendingQueue outgoingDataRate:vector:count 0
scalar LayeredApsk.host[0].wlan[0].mac.dcf.channelAccess.pendingQueue outgoingDataRate:vector:sum 0
scalar LayeredApsk.host[0].wlan[0].mac.dcf.channelAccess.pendingQueue outgoingDataRate:vector:sumweights 0
scalar LayeredApsk.host[0].wlan[0].mac.dcf.channelAccess.pendingQueue outgoingDataRate:vector:mean -nan
scalar LayeredApsk.host[0].wlan[0].mac.dcf.channelAccess.pendingQueue outgoingDataRate:vector:stddev nan
scalar LayeredApsk.host[0].wlan[0].mac.dcf.channelAccess.pendingQueue outgoingDataRate:vector:min inf
scalar LayeredApsk.host[0].wlan[0].mac.dcf.channelAccess.pendingQueue outgoingDataRate:vector:max -inf
scalar LayeredApsk.host[0].wlan[0].mac.dcf.channelAccess.pendingQueue outgoingDataRate:vector:starttime nan
scalar LayeredApsk.host[0].wlan[0].mac.dcf.channelAccess.pendingQueue outgoingDataRate:vector:endtime nan
scalar LayeredApsk.host[0].wlan[0].mac.dcf.channelAccess.pendingQueue droppedPacketLengthsQueueOverflow:vector:count 0
scalar LayeredApsk.host[0].wlan[0].mac.dcf.channelAccess.pendingQueue droppedPacketLengthsQueueOverflow:vector:sum 0
scalar LayeredApsk.host[0].wlan[0].mac.dcf.channelAccess.pendingQueue droppedPacketLengthsQueueOverflow:vector:sumweights 0
scalar LayeredApsk.host[0].wlan[0].mac.dcf.channelAccess.pendingQueue droppedPacketLengthsQueueOverflow:vector:mean -nan
scalar LayeredApsk.host[0].wlan[0].mac.dcf.channelAccess.pendingQueue droppedPacketLengthsQueueOverflow:vector:stddev nan
scalar LayeredApsk.host[0].wlan[0].mac.dcf.channelAccess.pendingQueue droppedPacketLengthsQueueOverflow:vector:min inf
scalar LayeredApsk.host[0].wlan[0].mac.dcf.channelAccess.pendingQueue droppedPacketLengthsQueueOverflow:vector:max -inf
scalar LayeredApsk.host[0].wlan[0].mac.dcf.channelAccess.pendingQueue droppedPacketLengthsQueueOverflow:vector:starttime nan
scalar LayeredApsk.host[0].wlan[0].mac.dcf.channelAccess.pendingQueue droppedPacketLengthsQueueOverflow:vector:endtime nan
scalar LayeredApsk.host[0].wlan[0].mac.dcf.channelAccess.pendingQueue flowQueueingTime:vector:count 0
scalar LayeredApsk.host[0].wlan[0].mac.dcf.channelAccess.pendingQueue flowQueueingTime:vector:sum 0
scalar LayeredApsk.host[0].wlan[0].mac.dcf.channelAccess.pendingQueue flowQueueingTime:vector:sumweights 0
scalar LayeredApsk.host[0].wlan[0].mac.dcf.channelAccess.pendingQueue flowQueueingTime:vector:mean -nan
scalar LayeredApsk.host[0].wlan[0].mac.dcf.channelAccess.pendingQueue flowQueueingTime:vector:stddev nan
scalar LayeredApsk.host[0].wlan[0].mac.dcf.channelAccess.pendingQueue flowQueueingTime:vector:min inf
scalar LayeredApsk.host[0].wlan[0].mac.dcf.channelAccess.pendingQueue flowQueueingTime:vector:max -inf
scalar LayeredApsk.host[0].wlan[0].mac.dcf.channelAccess.pendingQueue flowQueueingTime:vector:starttime nan
scalar LayeredApsk.host[0].wlan[0].mac.dcf.channelAccess.pendingQueue flowQueueingTime:vector:endtime nan
scalar LayeredApsk.host[0].wlan[0].mac.dcf.channelAccess.pendingQueue flowIncomingDataRate:vector:count 0
scalar LayeredApsk.host[0].wlan[0].mac.dcf.channelAccess.pendingQueue flowIncomingDataRate:vector:sum 0
scalar LayeredApsk.host[0].wlan[0].mac.dcf.channelAccess.pendingQueue flowIncomingDataRate:vector:sumweights 0
scalar LayeredApsk.host[0].wlan[0].mac.dcf.channelAccess.pendingQueue flowIncomingDataRate:vector:mean -nan
scalar LayeredApsk.host[0].wlan[0].mac.dcf.channelAccess.pendingQueue flowIncomingDataRate:vector:stddev nan
scalar LayeredApsk.host[0].wlan[0].mac.dcf.channelAccess.pendingQueue flowIncomingDataRate:vector:min inf
scalar LayeredApsk.host[0].wlan[0].mac.dcf.channelAccess.pendingQueue flowIncomingDataRate:vector:max -inf
scalar LayeredApsk.host[0].wlan[0].mac.dcf.channelAccess.pendingQueue flowIncomingDataRate:vector:starttime nan
scalar LayeredApsk.host[0].wlan[0].mac.dcf.channelAccess.pendingQueue flowIncomingDataRate:vector:endtime nan
scalar LayeredApsk.host[0].wlan[0].mac.dcf.channelAccess.pendingQueue flowOutgoingDataRate:vector:count 0
scalar LayeredApsk.host[0].wlan[0].mac.dcf.channelAccess.pendingQueue flowOutgoingDataRate:vector:sum 0
scalar LayeredApsk.host[0].wlan[0].mac.dcf.channelAccess.pendingQueue flowOutgoingDataRate:vector:sumweights 0
scalar LayeredApsk.host[0].wlan[0].mac.dcf.channelAccess.pendingQueue flowOutgoingDataRate:vector:mean -nan
scalar LayeredApsk.host[0].wlan[0].mac.dcf.channelAccess.pendingQueue flowOutgoingDataRate:vector:stddev nan
scalar LayeredApsk.host[0].wlan[0].mac.dcf.channelAccess.pendingQueue flowOutgoingDataRate:vector:min inf
scalar LayeredApsk.host[0].wlan[0].mac.dcf.channelAccess.pendingQueue flowOutgoingDataRate:vector:max -inf
scalar LayeredApsk.host[0].wlan[0].mac.dcf.channelAccess.pendingQueue flowOutgoingDataRate:vector:starttime nan
scalar LayeredApsk.host[0].wlan[0].mac.dcf.channelAccess.pendingQueue flowOutgoingDataRate:vector:endtime nan
scalar LayeredApsk.host[0].wlan[0].mac.dcf.channelAccess.inProgressFrames queueingTime:vector:count 0
scalar LayeredApsk.host[0].wlan[0].mac.dcf.channelAccess.inProgressFrames queueingTime:vector:sum 0
scalar LayeredApsk.host[0].wlan[0].mac.dcf.channelAccess.inProgressFrames queueingTime:vector:sumweights 0
scalar LayeredApsk.host[0].wlan[0].mac.dcf.channelAccess.inProgressFrames queueingTime:vector:mean -nan
scalar LayeredApsk.host[0].wlan[0].mac.dcf.channelAccess.inProgressFrames queueingTime:vector:stddev nan
scalar LayeredApsk.host[0].wlan[0].mac.dcf.channelAccess.inProgressFrames queueingTime:vector:min inf
scalar LayeredApsk.host[0].wlan[0].mac.dcf.channelAccess.inProgressFrames queueingTime:vector:max -inf
scalar LayeredApsk.host[0].wlan[0].mac.dcf.channelAccess.inProgressFrames queueingTime:vector:starttime nan
scalar LayeredApsk.host[0].wlan[0].mac.dcf.channelAccess.inProgressFrames queueingTime:vector:endtime nan
scalar LayeredApsk.host[0].wlan[0].mac.dcf.channelAccess.inProgressFrames queueLength:vector:count 0
scalar LayeredApsk.host[0].wlan[0].mac.dcf.channelAccess.inProgressFrames queueLength:vector:sum 0
scalar LayeredApsk.host[0].wlan[0].mac.dcf.channelAccess.inProgressFrames queueLength:vector:sumweights 0
scalar LayeredApsk.host[0].wlan[0].mac.dcf.channelAccess.inProgressFrames queueLength:vector:mean -nan
scalar LayeredApsk.host[0].wlan[0].mac.dcf.channelAccess.inProgressFrames queueLength:vector:stddev nan
scalar LayeredApsk.host[0].wlan[0].mac.dcf.channelAccess.inProgressFrames queueLength:vector:min inf
scalar LayeredApsk.host[0].wlan[0].mac.dcf.channelAccess.inProgressFrames queueLength:vector:max -inf
scalar LayeredApsk.host[0].wlan[0].mac.dcf.channelAccess.inProgressFrames queueLength:vector:starttime nan
scalar LayeredApsk.host[0].wlan[0].mac.dcf.channelAccess.inProgressFrames queueLength:vector:endtime nan
scalar LayeredApsk.host[0].wlan[0].mac.dcf.channelAccess.contention backoffPeriodGenerated:vector:count 0
scalar LayeredApsk.host[0].wlan[0].mac.dcf.channelAccess.contention backoffPeriodGenerated:vector:sum 0
scalar LayeredApsk.host[0].wlan[0].mac.dcf.channelAccess.contention backoffPeriodGenerated:vector:sumweights 0
scalar LayeredApsk.host[0].wlan[0].mac.dcf.channelAccess.contention backoffPeriodGenerated:vector:mean -nan
scalar LayeredApsk.host[0].wlan[0].mac.dcf.channelAccess.contention backoffPeriodGenerated:vector:stddev nan
scalar LayeredApsk.host[0].wlan[0].mac.dcf.channelAccess.contention backoffPeriodGenerated:vector:min inf
scalar LayeredApsk.host[0].wlan[0].mac.dcf.channelAccess.contention backoffPeriodGenerated:vector:max -inf
scalar LayeredApsk.host[0].wlan[0].mac.dcf.channelAccess.contention backoffPeriodGenerated:vector:starttime nan
scalar LayeredApsk.host[0].wlan[0].mac.dcf.channelAccess.contention backoffPeriodGenerated:vector:endtime nan
scalar LayeredApsk.host[0].wlan[0].mac.dcf.channelAccess.contention backoffActive:vector:count 0
scalar LayeredApsk.host[0].wlan[0].mac.dcf.channelAccess.contention backoffActive:vector:sum 0
scalar LayeredApsk.host[0].wlan[0].mac.dcf.channelAccess.contention backoffActive:vector:sumweights 0
scalar LayeredApsk.host[0].wlan[0].mac.dcf.channelAccess.contention backoffActive:vector:mean -nan
scalar LayeredApsk.host[0].wlan[0].mac.dcf.channelAccess.contention backoffActive:vector:stddev nan
scalar LayeredApsk.host[0].wlan[0].mac.dcf.channelAccess.contention backoffActive:vector:min inf
scalar LayeredApsk.host[0].wlan[0].mac.dcf.channelAccess.contention backoffActive:vector:max -inf
scalar LayeredApsk.host[0].wlan[0].mac.dcf.channelAccess.contention backoffActive:vector:starttime nan
scalar LayeredApsk.host[0].wlan[0].mac.dcf.channelAccess.contention backoffActive:vector:endtime nan
scalar LayeredApsk.host[0].wlan[0].mac.dcf.channelAccess.contention stateChanged:vector:count 0
scalar LayeredApsk.host[0].wlan[0].mac.dcf.channelAccess.contention stateChanged:vector:sum 0
scalar LayeredApsk.host[0].wlan[0].mac.dcf.channelAccess.contention stateChanged:vector:sumweights 0
scalar LayeredApsk.host[0].wlan[0].mac.dcf.channelAccess.contention stateChanged:vector:mean -nan
scalar LayeredApsk.host[0].wlan[0].mac.dcf.channelAccess.contention stateChanged:vector:stddev nan
scalar LayeredApsk.host[0].wlan[0].mac.dcf.channelAccess.contention stateChanged:vector:min inf
scalar LayeredApsk.host[0].wlan[0].mac.dcf.channelAccess.contention stateChanged:vector:max -inf
scalar LayeredApsk.host[0].wlan[0].mac.dcf.channelAccess.contention stateChanged:vector:starttime nan
scalar LayeredApsk.host[0].wlan[0].mac.dcf.channelAccess.contention stateChanged:vector:endtime nan
scalar LayeredApsk.host[0].wlan[0].mac.dcf.recipientMacDataService packetDropDuplicateDetected:vector(packetBytes):count 0
scalar LayeredApsk.host[0].wlan[0].mac.dcf.recipientMacDataService packetDropDuplicateDetected:vector(packetBytes):sum 0
scalar LayeredApsk.host[0].wlan[0].mac.dcf.recipientMacDataService packetDropDuplicateDetected:vector(packetBytes):sumweights 0
scalar LayeredApsk.host[0].wlan[0].mac.dcf.recipientMacDataService packetDropDuplicateDetected:vector(packetBytes):mean -nan
scalar LayeredApsk.host[0].wlan[0].mac.dcf.recipientMacDataService packetDropDuplicateDetected:vector(packetBytes):stddev nan
scalar LayeredApsk.host[0].wlan[0].mac.dcf.recipientMacDataService packetDropDuplicateDetected:vector(packetBytes):min inf
scalar LayeredApsk.host[0].wlan[0].mac.dcf.recipientMacDataService packetDropDuplicateDetected:vector(packetBytes):max -inf
scalar LayeredApsk.host[0].wlan[0].mac.dcf.recipientMacDataService packetDropDuplicateDetected:vector(packetBytes):starttime nan
scalar LayeredApsk.host[0].wlan[0].mac.dcf.recipientMacDataService packetDropDuplicateDetected:vector(packetBytes):endtime nan
scalar LayeredApsk.host[0].wlan[0].mac.dcf.recoveryProcedure contentionWindowChanged:vector:count 0
scalar LayeredApsk.host[0].wlan[0].mac.dcf.recoveryProcedure contentionWindowChanged:vector:sum 0
scalar LayeredApsk.host[0].wlan[0].mac.dcf.recoveryProcedure contentionWindowChanged:vector:sumweights 0
scalar LayeredApsk.host[0].wlan[0].mac.dcf.recoveryProcedure contentionWindowChanged:vector:mean -nan
scalar LayeredApsk.host[0].wlan[0].mac.dcf.recoveryProcedure contentionWindowChanged:vector:stddev nan
scalar LayeredApsk.host[0].wlan[0].mac.dcf.recoveryProcedure contentionWindowChanged:vector:min inf
scalar LayeredApsk.host[0].wlan[0].mac.dcf.recoveryProcedure contentionWindowChanged:vector:max -inf
scalar LayeredApsk.host[0].wlan[0].mac.dcf.recoveryProcedure contentionWindowChanged:vector:starttime nan
scalar LayeredApsk.host[0].wlan[0].mac.dcf.recoveryProcedure contentionWindowChanged:vector:endtime nan
scalar LayeredApsk.host[0].wlan[0].mac.dcf packetSentToPeer:vector(packetBytes):count 0
scalar LayeredApsk.host[0].wlan[0].mac.dcf packetSentToPeer:vector(packetBytes):sum 0
[...]
scalar LayeredApsk.host[1].wlan[0].mac packetDropNotAddressedToUs:vector(packetBytes):stddev nan
scalar LayeredApsk.host[1].wlan[0].mac packetDropNotAddressedToUs:vector(packetBytes):min inf
scalar LayeredApsk.host[1].wlan[0].mac packetDropNotAddressedToUs:vector(packetBytes):max -inf
scalar LayeredApsk.host[1].wlan[0].mac packetDropNotAddressedToUs:vector(packetBytes):starttime nan
scalar LayeredApsk.host[1].wlan[0].mac packetDropNotAddressedToUs:vector(packetBytes):endtime nan
scalar LayeredApsk.host[1].wlan[0].mac packetDropQueueOverflow:vector(packetBytes):count 0
scalar LayeredApsk.host[1].wlan[0].mac packetDropQueueOverflow:vector(packetBytes):sum 0
scalar LayeredApsk.host[1].wlan[0].mac packetDropQueueOverflow:vector(packetBytes):sumweights 0
scalar LayeredApsk.host[1].wlan[0].mac packetDropQueueOverflow:vector(packetBytes):mean -nan
scalar LayeredApsk.host[1].wlan[0].mac packetDropQueueOverflow:vector(packetBytes):stddev nan
scalar LayeredApsk.host[1].wlan[0].mac packetDropQueueOverflow:vector(packetBytes):min inf
scalar LayeredApsk.host[1].wlan[0].mac packetDropQueueOverflow:vector(packetBytes):max -inf
scalar LayeredApsk.host[1].wlan[0].mac packetDropQueueOverflow:vector(packetBytes):starttime nan
scalar LayeredApsk.host[1].wlan[0].mac packetDropQueueOverflow:vector(packetBytes):endtime nan
scalar LayeredApsk.host[1].wlan[0].mac packetDropRetryLimitReached:vector(packetBytes):count 0
scalar LayeredApsk.host[1].wlan[0].mac packetDropRetryLimitReached:vector(packetBytes):sum 0
scalar LayeredApsk.host[1].wlan[0].mac packetDropRetryLimitReached:vector(packetBytes):sumweights 0
scalar LayeredApsk.host[1].wlan[0].mac packetDropRetryLimitReached:vector(packetBytes):mean -nan
scalar LayeredApsk.host[1].wlan[0].mac packetDropRetryLimitReached:vector(packetBytes):stddev nan
scalar LayeredApsk.host[1].wlan[0].mac packetDropRetryLimitReached:vector(packetBytes):min inf
scalar LayeredApsk.host[1].wlan[0].mac packetDropRetryLimitReached:vector(packetBytes):max -inf
scalar LayeredApsk.host[1].wlan[0].mac packetDropRetryLimitReached:vector(packetBytes):starttime nan
scalar LayeredApsk.host[1].wlan[0].mac packetDropRetryLimitReached:vector(packetBytes):endtime nan
scalar LayeredApsk.host[1].wlan[0].mac packetDropDuplicateDetected:vector(packetBytes):count 0
scalar LayeredApsk.host[1].wlan[0].mac packetDropDuplicateDetected:vector(packetBytes):sum 0
scalar LayeredApsk.host[1].wlan[0].mac packetDropDuplicateDetected:vector(packetBytes):sumweights 0
scalar LayeredApsk.host[1].wlan[0].mac packetDropDuplicateDetected:vector(packetBytes):mean -nan
scalar LayeredApsk.host[1].wlan[0].mac packetDropDuplicateDetected:vector(packetBytes):stddev nan
scalar LayeredApsk.host[1].wlan[0].mac packetDropDuplicateDetected:vector(packetBytes):min inf
scalar LayeredApsk.host[1].wlan[0].mac packetDropDuplicateDetected:vector(packetBytes):max -inf
scalar LayeredApsk.host[1].wlan[0].mac packetDropDuplicateDetected:vector(packetBytes):starttime nan
scalar LayeredApsk.host[1].wlan[0].mac packetDropDuplicateDetected:vector(packetBytes):endtime nan
scalar LayeredApsk.host[1].wlan[0].mac packetDropOther:vector(packetBytes):count 0
scalar LayeredApsk.host[1].wlan[0].mac packetDropOther:vector(packetBytes):sum 0
scalar LayeredApsk.host[1].wlan[0].mac packetDropOther:vector(packetBytes):sumweights 0
scalar LayeredApsk.host[1].wlan[0].mac packetDropOther:vector(packetBytes):mean -nan
scalar LayeredApsk.host[1].wlan[0].mac packetDropOther:vector(packetBytes):stddev nan
scalar LayeredApsk.host[1].wlan[0].mac packetDropOther:vector(packetBytes):min inf
scalar LayeredApsk.host[1].wlan[0].mac packetDropOther:vector(packetBytes):max -inf
scalar LayeredApsk.host[1].wlan[0].mac packetDropOther:vector(packetBytes):starttime nan
scalar LayeredApsk.host[1].wlan[0].mac packetDropOther:vector(packetBytes):endtime nan
scalar LayeredApsk.host[1].wlan[0].radio radioMode:vector:count 0
scalar LayeredApsk.host[1].wlan[0].radio radioMode:vector:sum 0
scalar LayeredApsk.host[1].wlan[0].radio radioMode:vector:sumweights 0
scalar LayeredApsk.host[1].wlan[0].radio radioMode:vector:mean -nan
scalar LayeredApsk.host[1].wlan[0].radio radioMode:vector:stddev nan
scalar LayeredApsk.host[1].wlan[0].radio radioMode:vector:min inf
scalar LayeredApsk.host[1].wlan[0].radio radioMode:vector:max -inf
scalar LayeredApsk.host[1].wlan[0].radio radioMode:vector:starttime nan
scalar LayeredApsk.host[1].wlan[0].radio radioMode:vector:endtime nan
scalar LayeredApsk.host[1].wlan[0].radio receptionState:vector:count 0
scalar LayeredApsk.host[1].wlan[0].radio receptionState:vector:sum 0
scalar LayeredApsk.host[1].wlan[0].radio receptionState:vector:sumweights 0
scalar LayeredApsk.host[1].wlan[0].radio receptionState:vector:mean -nan
scalar LayeredApsk.host[1].wlan[0].radio receptionState:vector:stddev nan
scalar LayeredApsk.host[1].wlan[0].radio receptionState:vector:min inf
scalar LayeredApsk.host[1].wlan[0].radio receptionState:vector:max -inf
scalar LayeredApsk.host[1].wlan[0].radio receptionState:vector:starttime nan
scalar LayeredApsk.host[1].wlan[0].radio receptionState:vector:endtime nan
scalar LayeredApsk.host[1].wlan[0].radio transmissionState:vector:count 0
scalar LayeredApsk.host[1].wlan[0].radio transmissionState:vector:sum 0
scalar LayeredApsk.host[1].wlan[0].radio transmissionState:vector:sumweights 0
scalar LayeredApsk.host[1].wlan[0].radio transmissionState:vector:mean -nan
scalar LayeredApsk.host[1].wlan[0].radio transmissionState:vector:stddev nan
scalar LayeredApsk.host[1].wlan[0].radio transmissionState:vector:min inf
scalar LayeredApsk.host[1].wlan[0].radio transmissionState:vector:max -inf
scalar LayeredApsk.host[1].wlan[0].radio transmissionState:vector:starttime nan
scalar LayeredApsk.host[1].wlan[0].radio transmissionState:vector:endtime nan
scalar LayeredApsk.host[1].wlan[0].radio packetDropped:vector(packetBytes):count 0
scalar LayeredApsk.host[1].wlan[0].radio packetDropped:vector(packetBytes):sum 0
scalar LayeredApsk.host[1].wlan[0].radio packetDropped:vector(packetBytes):sumweights 0
scalar LayeredApsk.host[1].wlan[0].radio packetDropped:vector(packetBytes):mean -nan
scalar LayeredApsk.host[1].wlan[0].radio packetDropped:vector(packetBytes):stddev nan
scalar LayeredApsk.host[1].wlan[0].radio packetDropped:vector(packetBytes):min inf
scalar LayeredApsk.host[1].wlan[0].radio packetDropped:vector(packetBytes):max -inf
scalar LayeredApsk.host[1].wlan[0].radio packetDropped:vector(packetBytes):starttime nan
scalar LayeredApsk.host[1].wlan[0].radio packetDropped:vector(packetBytes):endtime nan
scalar LayeredApsk.host[1].wlan[0] packetDropInterfaceDown:vector(packetBytes):count 0
scalar LayeredApsk.host[1].wlan[0] packetDropInterfaceDown:vector(packetBytes):sum 0
scalar LayeredApsk.host[1].wlan[0] packetDropInterfaceDown:vector(packetBytes):sumweights 0
scalar LayeredApsk.host[1].wlan[0] packetDropInterfaceDown:vector(packetBytes):mean -nan
scalar LayeredApsk.host[1].wlan[0] packetDropInterfaceDown:vector(packetBytes):stddev nan
scalar LayeredApsk.host[1].wlan[0] packetDropInterfaceDown:vector(packetBytes):min inf
scalar LayeredApsk.host[1].wlan[0] packetDropInterfaceDown:vector(packetBytes):max -inf
scalar LayeredApsk.host[1].wlan[0] packetDropInterfaceDown:vector(packetBytes):starttime nan
scalar LayeredApsk.host[1].wlan[0] packetDropInterfaceDown:vector(packetBytes):endtime nan
scalar LayeredApsk.host[1].wlan[0] packetDropNoCarrier:vector(packetBytes):count 0
scalar LayeredApsk.host[1].wlan[0] packetDropNoCarrier:vector(packetBytes):sum 0
scalar LayeredApsk.host[1].wlan[0] packetDropNoCarrier:vector(packetBytes):sumweights 0
scalar LayeredApsk.host[1].wlan[0] packetDropNoCarrier:vector(packetBytes):mean -nan
scalar LayeredApsk.host[1].wlan[0] packetDropNoCarrier:vector(packetBytes):stddev nan
scalar LayeredApsk.host[1].wlan[0] packetDropNoCarrier:vector(packetBytes):min inf
scalar LayeredApsk.host[1].wlan[0] packetDropNoCarrier:vector(packetBytes):max -inf
scalar LayeredApsk.host[1].wlan[0] packetDropNoCarrier:vector(packetBytes):starttime nan
scalar LayeredApsk.host[1].wlan[0] packetDropNoCarrier:vector(packetBytes):endtime nan
scalar LayeredApsk.host[1].ipv4.ip packetDropAddressResolutionFailed:vector(packetBytes):count 0
scalar LayeredApsk.host[1].ipv4.ip packetDropAddressResolutionFailed:vector(packetBytes):sum 0
scalar LayeredApsk.host[1].ipv4.ip packetDropAddressResolutionFailed:vector(packetBytes):sumweights 0
scalar LayeredApsk.host[1].ipv4.ip packetDropAddressResolutionFailed:vector(packetBytes):mean -nan
scalar LayeredApsk.host[1].ipv4.ip packetDropAddressResolutionFailed:vector(packetBytes):stddev nan
scalar LayeredApsk.host[1].ipv4.ip packetDropAddressResolutionFailed:vector(packetBytes):min inf
scalar LayeredApsk.host[1].ipv4.ip packetDropAddressResolutionFailed:vector(packetBytes):max -inf
scalar LayeredApsk.host[1].ipv4.ip packetDropAddressResolutionFailed:vector(packetBytes):starttime nan
scalar LayeredApsk.host[1].ipv4.ip packetDropAddressResolutionFailed:vector(packetBytes):endtime nan
scalar LayeredApsk.host[1].ipv4.ip packetDropHopLimitReached:vector(packetBytes):count 0
scalar LayeredApsk.host[1].ipv4.ip packetDropHopLimitReached:vector(packetBytes):sum 0
scalar LayeredApsk.host[1].ipv4.ip packetDropHopLimitReached:vector(packetBytes):sumweights 0
scalar LayeredApsk.host[1].ipv4.ip packetDropHopLimitReached:vector(packetBytes):mean -nan
scalar LayeredApsk.host[1].ipv4.ip packetDropHopLimitReached:vector(packetBytes):stddev nan
scalar LayeredApsk.host[1].ipv4.ip packetDropHopLimitReached:vector(packetBytes):min inf
scalar LayeredApsk.host[1].ipv4.ip packetDropHopLimitReached:vector(packetBytes):max -inf
scalar LayeredApsk.host[1].ipv4.ip packetDropHopLimitReached:vector(packetBytes):starttime nan
scalar LayeredApsk.host[1].ipv4.ip packetDropHopLimitReached:vector(packetBytes):endtime nan
scalar LayeredApsk.host[1].ipv4.ip packetDropForwardingDisabled:vector(packetBytes):count 0
scalar LayeredApsk.host[1].ipv4.ip packetDropForwardingDisabled:vector(packetBytes):sum 0
scalar LayeredApsk.host[1].ipv4.ip packetDropForwardingDisabled:vector(packetBytes):sumweights 0
scalar LayeredApsk.host[1].ipv4.ip packetDropForwardingDisabled:vector(packetBytes):mean -nan
scalar LayeredApsk.host[1].ipv4.ip packetDropForwardingDisabled:vector(packetBytes):stddev nan
scalar LayeredApsk.host[1].ipv4.ip packetDropForwardingDisabled:vector(packetBytes):min inf
scalar LayeredApsk.host[1].ipv4.ip packetDropForwardingDisabled:vector(packetBytes):max -inf
scalar LayeredApsk.host[1].ipv4.ip packetDropForwardingDisabled:vector(packetBytes):starttime nan
scalar LayeredApsk.host[1].ipv4.ip packetDropForwardingDisabled:vector(packetBytes):endtime nan
scalar LayeredApsk.host[1].ipv4.ip packetDropLifetimeExpired:vector(packetBytes):count 0
scalar LayeredApsk.host[1].ipv4.ip packetDropLifetimeExpired:vector(packetBytes):sum 0
scalar LayeredApsk.host[1].ipv4.ip packetDropLifetimeExpired:vector(packetBytes):sumweights 0
scalar LayeredApsk.host[1].ipv4.ip packetDropLifetimeExpired:vector(packetBytes):mean -nan
scalar LayeredApsk.host[1].ipv4.ip packetDropLifetimeExpired:vector(packetBytes):stddev nan
scalar LayeredApsk.host[1].ipv4.ip packetDropLifetimeExpired:vector(packetBytes):min inf
scalar LayeredApsk.host[1].ipv4.ip packetDropLifetimeExpired:vector(packetBytes):max -inf
scalar LayeredApsk.host[1].ipv4.ip packetDropLifetimeExpired:vector(packetBytes):starttime nan
scalar LayeredApsk.host[1].ipv4.ip packetDropLifetimeExpired:vector(packetBytes):endtime nan
scalar LayeredApsk.host[1].ipv4.ip packetDropNoInterfaceFound:vector(packetBytes):count 0
scalar LayeredApsk.host[1].ipv4.ip packetDropNoInterfaceFound:vector(packetBytes):sum 0
scalar LayeredApsk.host[1].ipv4.ip packetDropNoInterfaceFound:vector(packetBytes):sumweights 0
scalar LayeredApsk.host[1].ipv4.ip packetDropNoInterfaceFound:vector(packetBytes):mean -nan
scalar LayeredApsk.host[1].ipv4.ip packetDropNoInterfaceFound:vector(packetBytes):stddev nan
scalar LayeredApsk.host[1].ipv4.ip packetDropNoInterfaceFound:vector(packetBytes):min inf
scalar LayeredApsk.host[1].ipv4.ip packetDropNoInterfaceFound:vector(packetBytes):max -inf
scalar LayeredApsk.host[1].ipv4.ip packetDropNoInterfaceFound:vector(packetBytes):starttime nan
scalar LayeredApsk.host[1].ipv4.ip packetDropNoInterfaceFound:vector(packetBytes):endtime nan
scalar LayeredApsk.host[1].ipv4.ip packetDropNoRouteFound:vector(packetBytes):count 0
scalar LayeredApsk.host[1].ipv4.ip packetDropNoRouteFound:vector(packetBytes):sum 0
scalar LayeredApsk.host[1].ipv4.ip packetDropNoRouteFound:vector(packetBytes):sumweights 0
scalar LayeredApsk.host[1].ipv4.ip packetDropNoRouteFound:vector(packetBytes):mean -nan
scalar LayeredApsk.host[1].ipv4.ip packetDropNoRouteFound:vector(packetBytes):stddev nan
scalar LayeredApsk.host[1].ipv4.ip packetDropNoRouteFound:vector(packetBytes):min inf
scalar LayeredApsk.host[1].ipv4.ip packetDropNoRouteFound:vector(packetBytes):max -inf
scalar LayeredApsk.host[1].ipv4.ip packetDropNoRouteFound:vector(packetBytes):starttime nan
scalar LayeredApsk.host[1].ipv4.ip packetDropNoRouteFound:vector(packetBytes):endtime nan
scalar LayeredApsk.host[1].ipv4.ip packetDropUndefined:vector(packetBytes):count 0
scalar LayeredApsk.host[1].ipv4.ip packetDropUndefined:vector(packetBytes):sum 0
scalar LayeredApsk.host[1].ipv4.ip packetDropUndefined:vector(packetBytes):sumweights 0
scalar LayeredApsk.host[1].ipv4.ip packetDropUndefined:vector(packetBytes):mean -nan
scalar LayeredApsk.host[1].ipv4.ip packetDropUndefined:vector(packetBytes):stddev nan
scalar LayeredApsk.host[1].ipv4.ip packetDropUndefined:vector(packetBytes):min inf
scalar LayeredApsk.host[1].ipv4.ip packetDropUndefined:vector(packetBytes):max -inf
scalar LayeredApsk.host[1].ipv4.ip packetDropUndefined:vector(packetBytes):starttime nan
scalar LayeredApsk.host[1].ipv4.ip packetDropUndefined:vector(packetBytes):endtime nan
scalar LayeredApsk.host[1].udp packetSent:vector(packetBytes):count 0
scalar LayeredApsk.host[1].udp packetSent:vector(packetBytes):sum 0
scalar LayeredApsk.host[1].udp packetSent:vector(packetBytes):sumweights 0
scalar LayeredApsk.host[1].udp packetSent:vector(packetBytes):mean -nan
scalar LayeredApsk.host[1].udp packetSent:vector(packetBytes):stddev nan
scalar LayeredApsk.host[1].udp packetSent:vector(packetBytes):min inf
scalar LayeredApsk.host[1].udp packetSent:vector(packetBytes):max -inf
scalar LayeredApsk.host[1].udp packetSent:vector(packetBytes):starttime nan
scalar LayeredApsk.host[1].udp packetSent:vector(packetBytes):endtime nan
scalar LayeredApsk.host[1].udp packetReceived:vector(packetBytes):count 0
scalar LayeredApsk.host[1].udp packetReceived:vector(packetBytes):sum 0
scalar LayeredApsk.host[1].udp packetReceived:vector(packetBytes):sumweights 0
scalar LayeredApsk.host[1].udp packetReceived:vector(packetBytes):mean -nan
scalar LayeredApsk.host[1].udp packetReceived:vector(packetBytes):stddev nan
scalar LayeredApsk.host[1].udp packetReceived:vector(packetBytes):min inf
scalar LayeredApsk.host[1].udp packetReceived:vector(packetBytes):max -inf
scalar LayeredApsk.host[1].udp packetReceived:vector(packetBytes):starttime nan
scalar LayeredApsk.host[1].udp packetReceived:vector(packetBytes):endtime nan
scalar LayeredApsk.host[1].udp passedUpPk:vector(count):count 0
scalar LayeredApsk.host[1].udp passedUpPk:vector(count):sum 0
scalar LayeredApsk.host[1].udp passedUpPk:vector(count):sumweights 0
scalar LayeredApsk.host[1].udp passedUpPk:vector(count):mean -nan
scalar LayeredApsk.host[1].udp passedUpPk:vector(count):stddev nan
scalar LayeredApsk.host[1].udp passedUpPk:vector(count):min inf
scalar LayeredApsk.host[1].udp passedUpPk:vector(count):max -inf
scalar LayeredApsk.host[1].udp passedUpPk:vector(count):starttime nan
scalar LayeredApsk.host[1].udp passedUpPk:vector(count):endtime nan
scalar LayeredApsk.host[1].udp droppedPkWrongPort:vector(count):count 0
scalar LayeredApsk.host[1].udp droppedPkWrongPort:vector(count):sum 0
scalar LayeredApsk.host[1].udp droppedPkWrongPort:vector(count):sumweights 0
scalar LayeredApsk.host[1].udp droppedPkWrongPort:vector(count):mean -nan
scalar LayeredApsk.host[1].udp droppedPkWrongPort:vector(count):stddev nan
scalar LayeredApsk.host[1].udp droppedPkWrongPort:vector(count):min inf
scalar LayeredApsk.host[1].udp droppedPkWrongPort:vector(count):max -inf
scalar LayeredApsk.host[1].udp droppedPkWrongPort:vector(count):starttime nan
scalar LayeredApsk.host[1].udp droppedPkWrongPort:vector(count):endtime nan
scalar LayeredApsk.host[1].udp droppedPkBadChecksum:vector(count):count 0
scalar LayeredApsk.host[1].udp droppedPkBadChecksum:vector(count):sum 0
scalar LayeredApsk.host[1].udp droppedPkBadChecksum:vector(count):sumweights 0
scalar LayeredApsk.host[1].udp droppedPkBadChecksum:vector(count):mean -nan
scalar LayeredApsk.host[1].udp droppedPkBadChecksum:vector(count):stddev nan
scalar LayeredApsk.host[1].udp droppedPkBadChecksum:vector(count):min inf
scalar LayeredApsk.host[1].udp droppedPkBadChecksum:vector(count):max -inf
scalar LayeredApsk.host[1].udp droppedPkBadChecksum:vector(count):starttime nan
scalar LayeredApsk.host[1].udp droppedPkBadChecksum:vector(count):endtime nan
scalar LayeredApsk.host[1].app[0] rtt:vector:count 0
scalar LayeredApsk.host[1].app[0] rtt:vector:sum 0
scalar LayeredApsk.host[1].app[0] rtt:vector:sumweights 0
scalar LayeredApsk.host[1].app[0] rtt:vector:mean -nan
scalar LayeredApsk.host[1].app[0] rtt:vector:stddev nan
scalar LayeredApsk.host[1].app[0] rtt:vector:min inf
scalar LayeredApsk.host[1].app[0] rtt:vector:max -inf
scalar LayeredApsk.host[1].app[0] rtt:vector:starttime nan
scalar LayeredApsk.host[1].app[0] rtt:vector:endtime nan
scalar LayeredApsk.host[1].app[0] numLost:vector:count 0
scalar LayeredApsk.host[1].app[0] numLost:vector:sum 0
scalar LayeredApsk.host[1].app[0] numLost:vector:sumweights 0
scalar LayeredApsk.host[1].app[0] numLost:vector:mean -nan
scalar LayeredApsk.host[1].app[0] numLost:vector:stddev nan
scalar LayeredApsk.host[1].app[0] numLost:vector:min inf
scalar LayeredApsk.host[1].app[0] numLost:vector:max -inf
scalar LayeredApsk.host[1].app[0] numLost:vector:starttime nan
scalar LayeredApsk.host[1].app[0] numLost:vector:endtime nan
scalar LayeredApsk.host[1].app[0] numOutOfOrderArrivals:vector:count 0
scalar LayeredApsk.host[1].app[0] numOutOfOrderArrivals:vector:sum 0
scalar LayeredApsk.host[1].app[0] numOutOfOrderArrivals:vector:sumweights 0
scalar LayeredApsk.host[1].app[0] numOutOfOrderArrivals:vector:mean -nan
scalar LayeredApsk.host[1].app[0] numOutOfOrderArrivals:vector:stddev nan
scalar LayeredApsk.host[1].app[0] numOutOfOrderArrivals:vector:min inf
scalar LayeredApsk.host[1].app[0] numOutOfOrderArrivals:vector:max -inf
scalar LayeredApsk.host[1].app[0] numOutOfOrderArrivals:vector:starttime nan
scalar LayeredApsk.host[1].app[0] numOutOfOrderArrivals:vector:endtime nan
scalar LayeredApsk.host[1].app[0] pingTxSeq:vector:count 0
scalar LayeredApsk.host[1].app[0] pingTxSeq:vector:sum 0
scalar LayeredApsk.host[1].app[0] pingTxSeq:vector:sumweights 0
scalar LayeredApsk.host[1].app[0] pingTxSeq:vector:mean -nan
scalar LayeredApsk.host[1].app[0] pingTxSeq:vector:stddev nan
scalar LayeredApsk.host[1].app[0] pingTxSeq:vector:min inf
scalar LayeredApsk.host[1].app[0] pingTxSeq:vector:max -inf
scalar LayeredApsk.host[1].app[0] pingTxSeq:vector:starttime nan
scalar LayeredApsk.host[1].app[0] pingTxSeq:vector:endtime nan
scalar LayeredApsk.host[1].app[0] pingRxSeq:vector:count 0
scalar LayeredApsk.host[1].app[0] pingRxSeq:vector:sum 0
scalar LayeredApsk.host[1].app[0] pingRxSeq:vector:sumweights 0
scalar LayeredApsk.host[1].app[0] pingRxSeq:vector:mean -nan
scalar LayeredApsk.host[1].app[0] pingRxSeq:vector:stddev nan
scalar LayeredApsk.host[1].app[0] pingRxSeq:vector:min inf
scalar LayeredApsk.host[1].app[0] pingRxSeq:vector:max -inf
scalar LayeredApsk.host[1].app[0] pingRxSeq:vector:starttime nan
scalar LayeredApsk.host[1].app[0] pingRxSeq:vector:endtime nan

