version 3
run Failover-0-20230411-10:33:57-43165
attr configname Failover
attr datetime 20230411-10:33:57
attr datetimef 20230411-103357
attr description "Hot-standby master clock takes over time synchronization"
attr experiment Failover
attr inifile omnetpp.ini
attr iterationvars ""
attr iterationvarsd ""
attr iterationvarsf ""
attr measurement ""
attr network GptpAndTasShowcase
attr processid 43165
attr repetition 0
attr replication #0
attr resultdir results
attr runnumber 0
attr seedset 0
config **.param-recording false
config image-path /home/levy/workspace/inet/images
config sim-time-limit 4s
config description "Hot-standby master clock takes over time synchronization"
config extends LinkFailure
config *.scenarioManager.script "xml(\"<scenario>                                   <at t='2'>                                     <disconnect src-module='tsnClock1' src-gate='ethg[0]'/>                                   </at>                                   <at t='2'>                                     <set-param module='tsnSwitch1.clock' par='activeClockIndex' value='2'/>                                     <set-param module='tsnSwitch2.clock' par='activeClockIndex' value='2'/>                                     <set-param module='tsnSwitch3.clock' par='activeClockIndex' value='2'/>                                     <set-param module='tsnSwitch4.clock' par='activeClockIndex' value='2'/>                                     <set-param module='tsnSwitch5.clock' par='activeClockIndex' value='2'/>                                     <set-param module='tsnSwitch6.clock' par='activeClockIndex' value='2'/>                                     <set-param module='tsnDevice1.clock' par='activeClockIndex' value='2'/>                                     <set-param module='tsnDevice2.clock' par='activeClockIndex' value='2'/>                                     <set-param module='tsnDevice3.clock' par='activeClockIndex' value='2'/>                                     <set-param module='tsnDevice4.clock' par='activeClockIndex' value='2'/>                                   </at>                                 </scenario>\")"
config description "Master clock link failure effects on time-aware shaping"
config extends NormalOperation
config *.scenarioManager.script "xml(\"<scenario>                                   <at t='2'>                                     <disconnect src-module='tsnClock1' src-gate='ethg[0]'/>                                   </at>                                 </scenario>\")"
config description "Normal operation of time-aware shaping with time synchronization"
config network GptpAndTasShowcase
config sim-time-limit 4s
config **.displayInterfaceTables true
config *.*.eth[*].bitrate 100Mbps
config *.tsnDevice1.numApps 1
config *.tsnDevice1.app[0].typename UdpSourceApp
config *.tsnDevice1.app[0].source.packetLength 10B
config *.tsnDevice1.app[0].source.productionInterval 1ms
config *.tsnDevice1.app[0].io.destAddress "\"tsnDevice4\""
config *.tsnDevice1.app[0].io.destPort 1000
config *.tsnDevice1.app[0].source.clockModule "\"^.^.clock\""
config *.tsnDevice4.numApps 1
config *.tsnDevice4.app[0].typename UdpSinkApp
config *.tsnDevice4.app[0].io.localPort 1000
config *.tsnSwitch*.hasEgressTrafficShaping true
config *.tsnSwitch*.eth[*].macLayer.queue.numTrafficClasses 2
config *.tsnSwitch*.eth[*].macLayer.queue.classifier.typename ContentBasedClassifier
config *.tsnSwitch*.eth[*].macLayer.queue.queue[*].typename DropTailQueue
config *.tsnSwitch*.eth[*].macLayer.queue.classifier.packetFilters "[\"app*\", \"Gptp*\"]"
config *.tsnSwitch*.eth[*].macLayer.queue.transmissionGate[0].durations "[100us, 900us]"
config *.tsnSwitch*.eth[*].macLayer.queue.transmissionGate[0].clockModule "\"^.^.^.^.clock\""
config *.tsnSwitch*.eth[*].macLayer.queue.transmissionGate[1].initiallyOpen true
config *.tsnSwitch*.eth[*].macLayer.queue.transmissionGate[1].durations []
config *.tsnSwitch*.eth[*].macLayer.queue.transmissionGate[1].clockModule "\"^.^.^.^.clock\""
config *.*.hasTimeSynchronization true
config **.oscillator.typename ConstantDriftOscillator
config *.tsnClock2.clock.clock[*].oscillator.driftRate -30ppm
config **.oscillator.driftRate "uniform(-100ppm, 100ppm)"
config *.tsnClock2.clock.typename MultiClock
config *.tsnClock2.clock.numClocks 2
config *.tsnClock*.gptp.typename MultiDomainGptp
config *.tsnClock1.gptp.numDomains 2
config *.tsnClock1.gptp.domain[0..1].clockModule "\"tsnClock1.clock\""
config *.tsnClock1.gptp.domain[0].masterPorts "[\"eth0\"]"
config *.tsnClock1.gptp.domain[1].masterPorts "[\"eth0\"]"
config *.tsnClock2.gptp.numDomains 4
config *.tsnClock2.gptp.domain[2..3].clockModule "\"tsnClock2.clock\""
config *.tsnClock2.gptp.domain[0].gptpNodeType "\"SLAVE_NODE\""
config *.tsnClock2.gptp.domain[0].slavePort "\"eth0\""
config *.tsnClock2.gptp.domain[1].gptpNodeType "\"SLAVE_NODE\""
config *.tsnClock2.gptp.domain[1].slavePort "\"eth0\""
config *.tsnClock2.gptp.domain[2].gptpNodeType "\"MASTER_NODE\""
config *.tsnClock2.gptp.domain[2].masterPorts "[\"eth0\"]"
config *.tsnClock2.gptp.domain[3].gptpNodeType "\"MASTER_NODE\""
config *.tsnClock2.gptp.domain[3].masterPorts "[\"eth0\"]"
config *.tsnSwitch*.clock.typename MultiClock
config *.tsnSwitch*.clock.numClocks 4
config *.tsnSwitch*.gptp.typename MultiDomainGptp
config *.tsnSwitch*.gptp.numDomains 4
config *.tsnSwitch1.gptp.domain[0].masterPorts "[\"eth1\"]"
config *.tsnSwitch1.gptp.domain[0].slavePort "\"eth0\""
config *.tsnSwitch1.gptp.domain[1].masterPorts "[\"eth2\"]"
config *.tsnSwitch1.gptp.domain[1].slavePort "\"eth0\""
config *.tsnSwitch1.gptp.domain[2].masterPorts "[\"eth1\"]"
config *.tsnSwitch1.gptp.domain[2].slavePort "\"eth2\""
config *.tsnSwitch1.gptp.domain[3].masterPorts "[\"eth2\"]"
config *.tsnSwitch1.gptp.domain[3].slavePort "\"eth1\""
config *.tsnSwitch2.gptp.domain[0].masterPorts "[\"eth1\", \"eth2\"]"
config *.tsnSwitch2.gptp.domain[0].slavePort "\"eth0\""
config *.tsnSwitch2.gptp.domain[1].masterPorts "[\"eth2\"]"
config *.tsnSwitch2.gptp.domain[1].slavePort "\"eth1\""
config *.tsnSwitch2.gptp.domain[2].masterPorts "[\"eth1\", \"eth2\"]"
config *.tsnSwitch2.gptp.domain[2].slavePort "\"eth0\""
config *.tsnSwitch2.gptp.domain[3].masterPorts "[\"eth0\", \"eth2\"]"
config *.tsnSwitch2.gptp.domain[3].slavePort "\"eth1\""
config *.tsnSwitch3.gptp.domain[0].masterPorts "[\"eth1\", \"eth2\"]"
config *.tsnSwitch3.gptp.domain[0].slavePort "\"eth0\""
config *.tsnSwitch3.gptp.domain[1].masterPorts "[\"eth0\", \"eth2\"]"
config *.tsnSwitch3.gptp.domain[1].slavePort "\"eth1\""
config *.tsnSwitch3.gptp.domain[2].masterPorts "[\"eth2\"]"
config *.tsnSwitch3.gptp.domain[2].slavePort "\"eth0\""
config *.tsnSwitch3.gptp.domain[3].masterPorts "[\"eth0\", \"eth2\"]"
config *.tsnSwitch3.gptp.domain[3].slavePort "\"eth1\""
config *.tsnSwitch4.gptp.domain[0].masterPorts "[\"eth0\", \"eth2\"]"
config *.tsnSwitch4.gptp.domain[0].slavePort "\"eth1\""
config *.tsnSwitch4.gptp.domain[1].masterPorts "[\"eth0\", \"eth1\"]"
config *.tsnSwitch4.gptp.domain[1].slavePort "\"eth2\""
config *.tsnSwitch4.gptp.domain[2].masterPorts "[\"eth2\"]"
config *.tsnSwitch4.gptp.domain[2].slavePort "\"eth0\""
config *.tsnSwitch4.gptp.domain[3].masterPorts "[\"eth1\"]"
config *.tsnSwitch4.gptp.domain[3].slavePort "\"eth0\""
config *.tsnSwitch5.gptp.domain[0].masterPorts "[\"eth1\", \"eth2\"]"
config *.tsnSwitch5.gptp.domain[0].slavePort "\"eth0\""
config *.tsnSwitch5.gptp.domain[1].masterPorts "[\"eth0\", \"eth2\"]"
config *.tsnSwitch5.gptp.domain[1].slavePort "\"eth1\""
config *.tsnSwitch5.gptp.domain[2].masterPorts "[\"eth1\", \"eth2\"]"
config *.tsnSwitch5.gptp.domain[2].slavePort "\"eth0\""
config *.tsnSwitch5.gptp.domain[3].masterPorts "[\"eth2\"]"
config *.tsnSwitch5.gptp.domain[3].slavePort "\"eth1\""
config *.tsnSwitch6.gptp.domain[0].masterPorts "[\"eth2\"]"
config *.tsnSwitch6.gptp.domain[0].slavePort "\"eth0\""
config *.tsnSwitch6.gptp.domain[1].masterPorts "[\"eth0\", \"eth2\"]"
config *.tsnSwitch6.gptp.domain[1].slavePort "\"eth1\""
config *.tsnSwitch6.gptp.domain[2].masterPorts "[\"eth1\", \"eth2\"]"
config *.tsnSwitch6.gptp.domain[2].slavePort "\"eth0\""
config *.tsnSwitch6.gptp.domain[3].masterPorts "[\"eth0\", \"eth2\"]"
config *.tsnSwitch6.gptp.domain[3].slavePort "\"eth1\""
config *.tsnDevice*.clock.typename MultiClock
config *.tsnDevice*.clock.numClocks 4
config *.tsnDevice*.gptp.typename MultiDomainGptp
config *.tsnDevice*.gptp.numDomains 4
config *.tsnDevice1.gptp.clockModule "\"tsnDevice1.clock\""
config *.tsnDevice2.gptp.clockModule "\"tsnDevice2.clock\""
config *.tsnDevice3.gptp.clockModule "\"tsnDevice3.clock\""
config *.tsnDevice4.gptp.clockModule "\"tsnDevice4.clock\""
config *.tsnDevice*.gptp.domain[*].slavePort "\"eth0\""
config **.pdelayInitialOffset 0.1ms
config *.*.gptp.domain[0].syncInitialOffset "syncInterval * 1 / 4"
config *.*.gptp.domain[1].syncInitialOffset "syncInterval * 2 / 4"
config *.*.gptp.domain[2].syncInitialOffset "syncInterval * 3 / 4"
config *.*.gptp.domain[3].syncInitialOffset "syncInterval * 4 / 4"
config *.visualizer.typename IntegratedMultiCanvasVisualizer
config *.visualizer.numDataLinkVisualizers 5
config *.visualizer.dataLinkVisualizer[*].displayLinks true
config *.visualizer.dataLinkVisualizer[*].activityLevel "\"protocol\""
config *.visualizer.dataLinkVisualizer[0].packetFilter "expr(has(GptpSync) && GptpSync.domainNumber == 0)"
config *.visualizer.dataLinkVisualizer[1].packetFilter "expr(has(GptpSync) && GptpSync.domainNumber == 1)"
config *.visualizer.dataLinkVisualizer[2].packetFilter "expr(has(GptpSync) && GptpSync.domainNumber == 2)"
config *.visualizer.dataLinkVisualizer[3].packetFilter "expr(has(GptpSync) && GptpSync.domainNumber == 3)"
config *.visualizer.dataLinkVisualizer[0].tags "\"primary GM domain0\""
config *.visualizer.dataLinkVisualizer[1].tags "\"primary GM domain1\""
config *.visualizer.dataLinkVisualizer[2].tags "\"hot-standby GM domain0\""
config *.visualizer.dataLinkVisualizer[3].tags "\"hot-standby GM domain1\""
config *.visualizer.dataLinkVisualizer[0].lineColor "\"blue4\""
config *.visualizer.dataLinkVisualizer[1].lineColor "\"blue1\""
config *.visualizer.dataLinkVisualizer[2].lineColor "\"red4\""
config *.visualizer.dataLinkVisualizer[3].lineColor "\"red1\""
config *.visualizer.dataLinkVisualizer[0..3].fadeOutMode "\"realTime\""
config *.visualizer.dataLinkVisualizer[0..3].fadeOutTime 5s
config *.visualizer.dataLinkVisualizer[4].packetFilter "\"source*\""
config *.visualizer.dataLinkVisualizer[4].tags "\"application\""
config *.visualizer.dataLinkVisualizer[4].lineColor "\"black\""
config *.visualizer.packetDropVisualizer[0].displayPacketDrops true
config *.visualizer.gateScheduleVisualizer[0].displayGateSchedules true
config *.visualizer.gateScheduleVisualizer[0].gateFilter "\"**.eth[1].**\""
config *.visualizer.gateScheduleVisualizer[0].height 16
config *.visualizer.gateScheduleVisualizer[0].placementHint "\"top\""

scalar GptpAndTasShowcase.tsnClock1.ethernet.macHeaderInserter outgoingPackets:count 104
attr recordingmode count
attr source "merge(packetPushedOut, packetPulledOut)"
attr title "outgoing packets, count"
attr unit pk
scalar GptpAndTasShowcase.tsnClock1.ethernet.macHeaderInserter outgoingPacketLengths:sum 57088
attr interpolationmode none
attr recordingmode sum
attr source "packetLength(merge(packetPushedOut, packetPulledOut))"
attr title "outgoing packet lengths, sum"
attr unit b
statistic GptpAndTasShowcase.tsnClock1.ethernet.macHeaderInserter outgoingPacketLengths:histogram
field count 104
field mean 548.92307692308
field stddev 116.51540106607
field min 464
field max 720
field sum 57088
field sqrsum 32735232
attr interpolationmode none
attr recordingmode histogram
attr source "packetLength(merge(packetPushedOut, packetPulledOut))"
attr title "outgoing packet lengths"
attr unit b
bin	-inf	0
bin	400	0
bin	405	0
bin	410	0
bin	415	0
bin	420	0
bin	425	0
bin	430	0
bin	435	0
bin	440	0
bin	445	0
bin	450	0
bin	455	0
bin	460	64
bin	465	0
bin	470	0
bin	475	0
bin	480	0
bin	485	0
bin	490	0
bin	495	0
bin	500	0
bin	505	0
bin	510	0
bin	515	0
bin	520	0
bin	525	0
bin	530	0
bin	535	0
bin	540	8
bin	545	0
bin	550	0
bin	555	0
bin	560	0
bin	565	0
bin	570	0
bin	575	0
bin	580	0
bin	585	0
bin	590	0
bin	595	0
bin	600	0
bin	605	0
bin	610	0
bin	615	0
bin	620	0
bin	625	0
bin	630	0
bin	635	0
bin	640	0
bin	645	0
bin	650	0
bin	655	0
bin	660	0
bin	665	0
bin	670	0
bin	675	0
bin	680	0
bin	685	0
bin	690	0
bin	695	0
bin	700	0
bin	705	0
bin	710	0
bin	715	0
bin	720	32
bin	725	0
bin	730	0
bin	735	0
bin	740	0
bin	745	0
bin	750	0
bin	755	0
bin	760	0
bin	765	0
bin	770	0
bin	775	0
bin	780	0
bin	785	0
scalar GptpAndTasShowcase.tsnClock1.ethernet.macHeaderInserter flowOutgoingPacketLengths:sum 0
attr interpolationmode none
attr recordingmode sum
attr source "packetLength(demuxFlow(merge(packetPushedOut, packetPulledOut)))"
attr title "flow specific outgoing packet lengths, sum"
attr unit b
statistic GptpAndTasShowcase.tsnClock1.ethernet.macHeaderInserter flowOutgoingPacketLengths:histogram
field count 0
field mean -nan
field stddev nan
field min nan
field max nan
field sum 0
field sqrsum 0
attr interpolationmode none
attr recordingmode histogram
attr source "packetLength(demuxFlow(merge(packetPushedOut, packetPulledOut)))"
attr title "flow specific outgoing packet lengths"
attr unit b
bin	-inf	0
bin	0	0
bin	1	0
scalar GptpAndTasShowcase.tsnClock1.ethernet.macHeaderInserter incomingPackets:count 104
attr recordingmode count
attr source "merge(packetPushedIn, packetPulledIn)"
attr title "incoming packets, count"
attr unit pk
scalar GptpAndTasShowcase.tsnClock1.ethernet.macHeaderInserter incomingPacketLengths:sum 45440
attr interpolationmode none
attr recordingmode sum
attr source "packetLength(merge(packetPushedIn, packetPulledIn))"
attr title "incoming packet lengths, sum"
attr unit b
statistic GptpAndTasShowcase.tsnClock1.ethernet.macHeaderInserter incomingPacketLengths:histogram
field count 104
field mean 436.92307692308
field stddev 116.51540106607
field min 352
field max 608
field sum 45440
field sqrsum 21252096
attr interpolationmode none
attr recordingmode histogram
attr source "packetLength(merge(packetPushedIn, packetPulledIn))"
attr title "incoming packet lengths"
attr unit b
bin	-inf	0
bin	285	0
bin	290	0
bin	295	0
bin	300	0
bin	305	0
bin	310	0
bin	315	0
bin	320	0
bin	325	0
bin	330	0
bin	335	0
bin	340	0
bin	345	0
bin	350	64
bin	355	0
bin	360	0
bin	365	0
bin	370	0
bin	375	0
bin	380	0
bin	385	0
bin	390	0
bin	395	0
bin	400	0
bin	405	0
bin	410	0
bin	415	0
bin	420	0
bin	425	0
bin	430	8
bin	435	0
bin	440	0
bin	445	0
bin	450	0
bin	455	0
bin	460	0
bin	465	0
bin	470	0
bin	475	0
bin	480	0
bin	485	0
bin	490	0
bin	495	0
bin	500	0
bin	505	0
bin	510	0
bin	515	0
bin	520	0
bin	525	0
bin	530	0
bin	535	0
bin	540	0
bin	545	0
bin	550	0
bin	555	0
bin	560	0
bin	565	0
bin	570	0
bin	575	0
bin	580	0
bin	585	0
bin	590	0
bin	595	0
bin	600	0
bin	605	32
bin	610	0
bin	615	0
bin	620	0
bin	625	0
bin	630	0
bin	635	0
bin	640	0
bin	645	0
bin	650	0
bin	655	0
bin	660	0
bin	665	0
bin	670	0
bin	675	0
scalar GptpAndTasShowcase.tsnClock1.ethernet.macHeaderInserter flowIncomingPacketLengths:sum 0
attr interpolationmode none
attr recordingmode sum
attr source "packetLength(demuxFlow(merge(packetPushedIn, packetPulledIn)))"
attr title "flow specific incoming packet lengths, sum"
attr unit b
statistic GptpAndTasShowcase.tsnClock1.ethernet.macHeaderInserter flowIncomingPacketLengths:histogram
field count 0
field mean -nan
field stddev nan
field min nan
field max nan
field sum 0
field sqrsum 0
attr interpolationmode none
attr recordingmode histogram
attr source "packetLength(demuxFlow(merge(packetPushedIn, packetPulledIn)))"
attr title "flow specific incoming packet lengths"
attr unit b
bin	-inf	0
bin	0	0
bin	1	0
scalar GptpAndTasShowcase.tsnClock1.ethernet.paddingInserter outgoingPackets:count 104
attr recordingmode count
attr source "merge(packetPushedOut, packetPulledOut)"
attr title "outgoing packets, count"
attr unit pk
scalar GptpAndTasShowcase.tsnClock1.ethernet.paddingInserter outgoingPacketLengths:sum 58112
attr interpolationmode none
attr recordingmode sum
attr source "packetLength(merge(packetPushedOut, packetPulledOut))"
attr title "outgoing packet lengths, sum"
attr unit b
statistic GptpAndTasShowcase.tsnClock1.ethernet.paddingInserter outgoingPacketLengths:histogram
field count 104
field mean 558.76923076923
field stddev 109.30897073387
field min 480
field max 720
field sum 58112
field sqrsum 33701888
attr interpolationmode none
attr recordingmode histogram
attr source "packetLength(merge(packetPushedOut, packetPulledOut))"
attr title "outgoing packet lengths"
attr unit b
bin	-inf	0
bin	420	0
bin	425	0
bin	430	0
bin	435	0
bin	440	0
bin	445	0
bin	450	0
bin	455	0
bin	460	0
bin	465	0
bin	470	0
bin	475	0
bin	480	64
bin	485	0
bin	490	0
bin	495	0
bin	500	0
bin	505	0
bin	510	0
bin	515	0
bin	520	0
bin	525	0
bin	530	0
bin	535	0
bin	540	8
bin	545	0
bin	550	0
bin	555	0
bin	560	0
bin	565	0
bin	570	0
bin	575	0
bin	580	0
bin	585	0
bin	590	0
bin	595	0
bin	600	0
bin	605	0
bin	610	0
bin	615	0
bin	620	0
bin	625	0
bin	630	0
bin	635	0
bin	640	0
bin	645	0
bin	650	0
bin	655	0
bin	660	0
bin	665	0
bin	670	0
bin	675	0
bin	680	0
bin	685	0
bin	690	0
bin	695	0
bin	700	0
bin	705	0
bin	710	0
bin	715	0
bin	720	32
bin	725	0
bin	730	0
bin	735	0
bin	740	0
bin	745	0
bin	750	0
bin	755	0
bin	760	0
bin	765	0
bin	770	0
bin	775	0
bin	780	0
scalar GptpAndTasShowcase.tsnClock1.ethernet.paddingInserter flowOutgoingPacketLengths:sum 0
attr interpolationmode none
attr recordingmode sum
attr source "packetLength(demuxFlow(merge(packetPushedOut, packetPulledOut)))"
attr title "flow specific outgoing packet lengths, sum"
attr unit b
statistic GptpAndTasShowcase.tsnClock1.ethernet.paddingInserter flowOutgoingPacketLengths:histogram
field count 0
field mean -nan
field stddev nan
field min nan
field max nan
field sum 0
field sqrsum 0
attr interpolationmode none
attr recordingmode histogram
attr source "packetLength(demuxFlow(merge(packetPushedOut, packetPulledOut)))"
attr title "flow specific outgoing packet lengths"
attr unit b
bin	-inf	0
bin	0	0
bin	1	0
scalar GptpAndTasShowcase.tsnClock1.ethernet.paddingInserter incomingPackets:count 104
attr recordingmode count
attr source "merge(packetPushedIn, packetPulledIn)"
attr title "incoming packets, count"
attr unit pk
scalar GptpAndTasShowcase.tsnClock1.ethernet.paddingInserter incomingPacketLengths:sum 57088
attr interpolationmode none
attr recordingmode sum
attr source "packetLength(merge(packetPushedIn, packetPulledIn))"
attr title "incoming packet lengths, sum"
attr unit b
statistic GptpAndTasShowcase.tsnClock1.ethernet.paddingInserter incomingPacketLengths:histogram
field count 104
field mean 548.92307692308
field stddev 116.51540106607
field min 464
field max 720
field sum 57088
field sqrsum 32735232
attr interpolationmode none
attr recordingmode histogram
attr source "packetLength(merge(packetPushedIn, packetPulledIn))"
attr title "incoming packet lengths"
attr unit b
bin	-inf	0
bin	400	0
bin	405	0
bin	410	0
bin	415	0
bin	420	0
bin	425	0
bin	430	0
bin	435	0
bin	440	0
bin	445	0
bin	450	0
bin	455	0
bin	460	64
bin	465	0
bin	470	0
bin	475	0
bin	480	0
bin	485	0
bin	490	0
bin	495	0
bin	500	0
bin	505	0
bin	510	0
bin	515	0
bin	520	0
bin	525	0
bin	530	0
bin	535	0
bin	540	8
bin	545	0
bin	550	0
bin	555	0
bin	560	0
bin	565	0
bin	570	0
bin	575	0
bin	580	0
bin	585	0
bin	590	0
bin	595	0
bin	600	0
bin	605	0
bin	610	0
bin	615	0
bin	620	0
bin	625	0
bin	630	0
bin	635	0
bin	640	0
bin	645	0
bin	650	0
bin	655	0
bin	660	0
bin	665	0
bin	670	0
bin	675	0
bin	680	0
bin	685	0
bin	690	0
bin	695	0
bin	700	0
bin	705	0
bin	710	0
bin	715	0
bin	720	32
bin	725	0
bin	730	0
bin	735	0
bin	740	0
bin	745	0
bin	750	0
bin	755	0
bin	760	0
bin	765	0
bin	770	0
bin	775	0
bin	780	0
bin	785	0
scalar GptpAndTasShowcase.tsnClock1.ethernet.paddingInserter flowIncomingPacketLengths:sum 0
attr interpolationmode none
attr recordingmode sum
attr source "packetLength(demuxFlow(merge(packetPushedIn, packetPulledIn)))"
attr title "flow specific incoming packet lengths, sum"
attr unit b
statistic GptpAndTasShowcase.tsnClock1.ethernet.paddingInserter flowIncomingPacketLengths:histogram
field count 0
field mean -nan
field stddev nan
field min nan
field max nan
field sum 0
field sqrsum 0
attr interpolationmode none
attr recordingmode histogram
attr source "packetLength(demuxFlow(merge(packetPushedIn, packetPulledIn)))"
attr title "flow specific incoming packet lengths"
attr unit b
bin	-inf	0
bin	0	0
bin	1	0
scalar GptpAndTasShowcase.tsnClock1.ethernet.fcsInserter outgoingPackets:count 104
attr recordingmode count
attr source "merge(packetPushedOut, packetPulledOut)"
attr title "outgoing packets, count"
attr unit pk
scalar GptpAndTasShowcase.tsnClock1.ethernet.fcsInserter outgoingPacketLengths:sum 61440
attr interpolationmode none
attr recordingmode sum
attr source "packetLength(merge(packetPushedOut, packetPulledOut))"
attr title "outgoing packet lengths, sum"
attr unit b
statistic GptpAndTasShowcase.tsnClock1.ethernet.fcsInserter outgoingPacketLengths:histogram
field count 104
field mean 590.76923076923
field stddev 109.30897073387
field min 512
field max 752
field sum 61440
field sqrsum 37527552
attr interpolationmode none
attr recordingmode histogram
attr source "packetLength(merge(packetPushedOut, packetPulledOut))"
attr title "outgoing packet lengths"
attr unit b
bin	-inf	0
bin	450	0
bin	455	0
bin	460	0
bin	465	0
bin	470	0
bin	475	0
bin	480	0
bin	485	0
bin	490	0
bin	495	0
bin	500	0
bin	505	0
bin	510	64
bin	515	0
bin	520	0
bin	525	0
bin	530	0
bin	535	0
bin	540	0
bin	545	0
bin	550	0
bin	555	0
bin	560	0
bin	565	0
bin	570	0
bin	575	8
bin	580	0
bin	585	0
bin	590	0
bin	595	0
bin	600	0
bin	605	0
bin	610	0
bin	615	0
bin	620	0
bin	625	0
bin	630	0
bin	635	0
bin	640	0
bin	645	0
bin	650	0
bin	655	0
bin	660	0
bin	665	0
bin	670	0
bin	675	0
bin	680	0
bin	685	0
bin	690	0
bin	695	0
bin	700	0
bin	705	0
bin	710	0
bin	715	0
bin	720	0
bin	725	0
bin	730	0
bin	735	0
bin	740	0
bin	745	0
bin	750	32
bin	755	0
bin	760	0
bin	765	0
bin	770	0
bin	775	0
bin	780	0
bin	785	0
bin	790	0
bin	795	0
bin	800	0
bin	805	0
bin	810	0
bin	815	0
scalar GptpAndTasShowcase.tsnClock1.ethernet.fcsInserter flowOutgoingPacketLengths:sum 0
attr interpolationmode none
attr recordingmode sum
attr source "packetLength(demuxFlow(merge(packetPushedOut, packetPulledOut)))"
attr title "flow specific outgoing packet lengths, sum"
attr unit b
statistic GptpAndTasShowcase.tsnClock1.ethernet.fcsInserter flowOutgoingPacketLengths:histogram
field count 0
field mean -nan
field stddev nan
field min nan
field max nan
field sum 0
field sqrsum 0
attr interpolationmode none
attr recordingmode histogram
attr source "packetLength(demuxFlow(merge(packetPushedOut, packetPulledOut)))"
attr title "flow specific outgoing packet lengths"
attr unit b
bin	-inf	0
bin	0	0
bin	1	0
scalar GptpAndTasShowcase.tsnClock1.ethernet.fcsInserter incomingPackets:count 104
attr recordingmode count
attr source "merge(packetPushedIn, packetPulledIn)"
attr title "incoming packets, count"
attr unit pk
scalar GptpAndTasShowcase.tsnClock1.ethernet.fcsInserter incomingPacketLengths:sum 58112
attr interpolationmode none
attr recordingmode sum
attr source "packetLength(merge(packetPushedIn, packetPulledIn))"
attr title "incoming packet lengths, sum"
attr unit b
statistic GptpAndTasShowcase.tsnClock1.ethernet.fcsInserter incomingPacketLengths:histogram
field count 104
field mean 558.76923076923
field stddev 109.30897073387
field min 480
field max 720
field sum 58112
field sqrsum 33701888
attr interpolationmode none
attr recordingmode histogram
attr source "packetLength(merge(packetPushedIn, packetPulledIn))"
attr title "incoming packet lengths"
attr unit b
bin	-inf	0
bin	420	0
bin	425	0
bin	430	0
bin	435	0
bin	440	0
bin	445	0
bin	450	0
bin	455	0
bin	460	0
bin	465	0
bin	470	0
bin	475	0
bin	480	64
bin	485	0
bin	490	0
bin	495	0
bin	500	0
bin	505	0
bin	510	0
bin	515	0
bin	520	0
bin	525	0
bin	530	0
bin	535	0
bin	540	8
bin	545	0
bin	550	0
bin	555	0
bin	560	0
bin	565	0
bin	570	0
bin	575	0
bin	580	0
bin	585	0
bin	590	0
bin	595	0
bin	600	0
bin	605	0
bin	610	0
bin	615	0
bin	620	0
bin	625	0
bin	630	0
bin	635	0
bin	640	0
bin	645	0
bin	650	0
bin	655	0
bin	660	0
bin	665	0
bin	670	0
bin	675	0
bin	680	0
bin	685	0
bin	690	0
bin	695	0
bin	700	0
bin	705	0
bin	710	0
bin	715	0
bin	720	32
bin	725	0
bin	730	0
bin	735	0
bin	740	0
bin	745	0
bin	750	0
bin	755	0
bin	760	0
bin	765	0
bin	770	0
bin	775	0
bin	780	0
scalar GptpAndTasShowcase.tsnClock1.ethernet.fcsInserter flowIncomingPacketLengths:sum 0
attr interpolationmode none
attr recordingmode sum
attr source "packetLength(demuxFlow(merge(packetPushedIn, packetPulledIn)))"
attr title "flow specific incoming packet lengths, sum"
attr unit b
statistic GptpAndTasShowcase.tsnClock1.ethernet.fcsInserter flowIncomingPacketLengths:histogram
field count 0
field mean -nan
field stddev nan
field min nan
field max nan
field sum 0
field sqrsum 0
attr interpolationmode none
attr recordingmode histogram
attr source "packetLength(demuxFlow(merge(packetPushedIn, packetPulledIn)))"
attr title "flow specific incoming packet lengths"
attr unit b
bin	-inf	0
bin	0	0
bin	1	0
scalar GptpAndTasShowcase.tsnClock1.ethernet.macHeaderChecker outgoingPackets:count 4
attr recordingmode count
attr source "merge(packetPushedOut, packetPulledOut)"
attr title "outgoing packets, count"
attr unit pk
scalar GptpAndTasShowcase.tsnClock1.ethernet.macHeaderChecker outgoingPacketLengths:sum 1728
attr interpolationmode none
attr recordingmode sum
attr source "packetLength(merge(packetPushedOut, packetPulledOut))"
attr title "outgoing packet lengths, sum"
attr unit b
statistic GptpAndTasShowcase.tsnClock1.ethernet.macHeaderChecker outgoingPacketLengths:histogram
field count 4
field mean 432
field stddev 0
field min 432
field max 432
field sum 1728
field sqrsum 746496
attr interpolationmode none
attr recordingmode histogram
attr source "packetLength(merge(packetPushedOut, packetPulledOut))"
attr title "outgoing packet lengths"
attr unit b
bin	-inf	0
bin	431	0
bin	432	4
bin	433	0
scalar GptpAndTasShowcase.tsnClock1.ethernet.macHeaderChecker flowOutgoingPacketLengths:sum 0
attr interpolationmode none
attr recordingmode sum
attr source "packetLength(demuxFlow(merge(packetPushedOut, packetPulledOut)))"
attr title "flow specific outgoing packet lengths, sum"
attr unit b
statistic GptpAndTasShowcase.tsnClock1.ethernet.macHeaderChecker flowOutgoingPacketLengths:histogram
field count 0
field mean -nan
field stddev nan
field min nan
field max nan
field sum 0
field sqrsum 0
attr interpolationmode none
attr recordingmode histogram
attr source "packetLength(demuxFlow(merge(packetPushedOut, packetPulledOut)))"
attr title "flow specific outgoing packet lengths"
attr unit b
bin	-inf	0
bin	0	0
bin	1	0
scalar GptpAndTasShowcase.tsnClock1.ethernet.macHeaderChecker incomingPackets:count 4
attr recordingmode count
attr source "merge(packetPushedIn, packetPulledIn)"
attr title "incoming packets, count"
attr unit pk
scalar GptpAndTasShowcase.tsnClock1.ethernet.macHeaderChecker incomingPacketLengths:sum 2176
attr interpolationmode none
attr recordingmode sum
attr source "packetLength(merge(packetPushedIn, packetPulledIn))"
attr title "incoming packet lengths, sum"
attr unit b
statistic GptpAndTasShowcase.tsnClock1.ethernet.macHeaderChecker incomingPacketLengths:histogram
field count 4
field mean 544
field stddev 0
field min 544
field max 544
field sum 2176
field sqrsum 1183744
attr interpolationmode none
attr recordingmode histogram
attr source "packetLength(merge(packetPushedIn, packetPulledIn))"
attr title "incoming packet lengths"
attr unit b
bin	-inf	0
bin	543	0
bin	544	4
bin	545	0
scalar GptpAndTasShowcase.tsnClock1.ethernet.macHeaderChecker flowIncomingPacketLengths:sum 0
attr interpolationmode none
attr recordingmode sum
attr source "packetLength(demuxFlow(merge(packetPushedIn, packetPulledIn)))"
attr title "flow specific incoming packet lengths, sum"
attr unit b
statistic GptpAndTasShowcase.tsnClock1.ethernet.macHeaderChecker flowIncomingPacketLengths:histogram
field count 0
field mean -nan
field stddev nan
field min nan
field max nan
field sum 0
field sqrsum 0
attr interpolationmode none
attr recordingmode histogram
attr source "packetLength(demuxFlow(merge(packetPushedIn, packetPulledIn)))"
attr title "flow specific incoming packet lengths"
attr unit b
bin	-inf	0
bin	0	0
bin	1	0
scalar GptpAndTasShowcase.tsnClock1.ethernet.macHeaderChecker droppedPackets:count 0
attr recordingmode count
attr source packetDropped
attr title "dropped packets, count"
attr unit pk
scalar GptpAndTasShowcase.tsnClock1.ethernet.macHeaderChecker droppedPacketLengths:sum 0
attr interpolationmode none
attr recordingmode sum
attr source packetLength(packetDropped)
attr title "dropped packet lengths, sum"
attr unit b
statistic GptpAndTasShowcase.tsnClock1.ethernet.macHeaderChecker droppedPacketLengths:histogram
field count 0
field mean -nan
field stddev nan
field min nan
field max nan
field sum 0
field sqrsum 0
attr interpolationmode none
attr recordingmode histogram
attr source packetLength(packetDropped)
attr title "dropped packet lengths"
attr unit b
bin	-inf	0
bin	0	0
bin	1	0
scalar GptpAndTasShowcase.tsnClock1.ethernet.macHeaderChecker flowDroppedPacketLengths:sum 0
attr interpolationmode none
attr recordingmode sum
attr source packetLength(demuxFlow(packetDropped))
attr title "flow specific dropped packet lengths, sum"
attr unit b
statistic GptpAndTasShowcase.tsnClock1.ethernet.macHeaderChecker flowDroppedPacketLengths:histogram
field count 0
field mean -nan
field stddev nan
field min nan
field max nan
field sum 0
field sqrsum 0
attr interpolationmode none
attr recordingmode histogram
attr source packetLength(demuxFlow(packetDropped))
attr title "flow specific dropped packet lengths"
attr unit b
bin	-inf	0
bin	0	0
bin	1	0
scalar GptpAndTasShowcase.tsnClock1.ethernet.fcsChecker outgoingPackets:count 4
attr recordingmode count
attr source "merge(packetPushedOut, packetPulledOut)"
attr title "outgoing packets, count"
attr unit pk
scalar GptpAndTasShowcase.tsnClock1.ethernet.fcsChecker outgoingPacketLengths:sum 2176
attr interpolationmode none
attr recordingmode sum
attr source "packetLength(merge(packetPushedOut, packetPulledOut))"
attr title "outgoing packet lengths, sum"
attr unit b
statistic GptpAndTasShowcase.tsnClock1.ethernet.fcsChecker outgoingPacketLengths:histogram
field count 4
field mean 544
field stddev 0
field min 544
field max 544
field sum 2176
field sqrsum 1183744
attr interpolationmode none
attr recordingmode histogram
attr source "packetLength(merge(packetPushedOut, packetPulledOut))"
attr title "outgoing packet lengths"
attr unit b
bin	-inf	0
bin	543	0
bin	544	4
bin	545	0
scalar GptpAndTasShowcase.tsnClock1.ethernet.fcsChecker flowOutgoingPacketLengths:sum 0
attr interpolationmode none
attr recordingmode sum
attr source "packetLength(demuxFlow(merge(packetPushedOut, packetPulledOut)))"
attr title "flow specific outgoing packet lengths, sum"
attr unit b
statistic GptpAndTasShowcase.tsnClock1.ethernet.fcsChecker flowOutgoingPacketLengths:histogram
field count 0
field mean -nan
field stddev nan
field min nan
field max nan
field sum 0
field sqrsum 0
attr interpolationmode none
attr recordingmode histogram
attr source "packetLength(demuxFlow(merge(packetPushedOut, packetPulledOut)))"
attr title "flow specific outgoing packet lengths"
attr unit b
bin	-inf	0
bin	0	0
bin	1	0
scalar GptpAndTasShowcase.tsnClock1.ethernet.fcsChecker incomingPackets:count 4
attr recordingmode count
attr source "merge(packetPushedIn, packetPulledIn)"
attr title "incoming packets, count"
attr unit pk
scalar GptpAndTasShowcase.tsnClock1.ethernet.fcsChecker incomingPacketLengths:sum 2304
attr interpolationmode none
attr recordingmode sum
attr source "packetLength(merge(packetPushedIn, packetPulledIn))"
attr title "incoming packet lengths, sum"
attr unit b
statistic GptpAndTasShowcase.tsnClock1.ethernet.fcsChecker incomingPacketLengths:histogram
field count 4
field mean 576
field stddev 0
field min 576
field max 576
field sum 2304
field sqrsum 1327104
attr interpolationmode none
attr recordingmode histogram
attr source "packetLength(merge(packetPushedIn, packetPulledIn))"
attr title "incoming packet lengths"
attr unit b
bin	-inf	0
bin	575	0
bin	576	4
bin	577	0
scalar GptpAndTasShowcase.tsnClock1.ethernet.fcsChecker flowIncomingPacketLengths:sum 0
attr interpolationmode none
attr recordingmode sum
attr source "packetLength(demuxFlow(merge(packetPushedIn, packetPulledIn)))"
attr title "flow specific incoming packet lengths, sum"
attr unit b
statistic GptpAndTasShowcase.tsnClock1.ethernet.fcsChecker flowIncomingPacketLengths:histogram
field count 0
field mean -nan
field stddev nan
field min nan
field max nan
field sum 0
field sqrsum 0
attr interpolationmode none
attr recordingmode histogram
attr source "packetLength(demuxFlow(merge(packetPushedIn, packetPulledIn)))"
attr title "flow specific incoming packet lengths"
attr unit b
bin	-inf	0
bin	0	0
bin	1	0
scalar GptpAndTasShowcase.tsnClock1.ethernet.fcsChecker droppedPackets:count 0
attr recordingmode count
attr source packetDropped
attr title "dropped packets, count"
attr unit pk
scalar GptpAndTasShowcase.tsnClock1.ethernet.fcsChecker droppedPacketLengths:sum 0
attr interpolationmode none
attr recordingmode sum
attr source packetLength(packetDropped)
attr title "dropped packet lengths, sum"
attr unit b
statistic GptpAndTasShowcase.tsnClock1.ethernet.fcsChecker droppedPacketLengths:histogram
field count 0
field mean -nan
field stddev nan
field min nan
field max nan
field sum 0
field sqrsum 0
attr interpolationmode none
attr recordingmode histogram
attr source packetLength(packetDropped)
attr title "dropped packet lengths"
attr unit b
bin	-inf	0
bin	0	0
bin	1	0
scalar GptpAndTasShowcase.tsnClock1.ethernet.fcsChecker flowDroppedPacketLengths:sum 0
attr interpolationmode none
attr recordingmode sum
attr source packetLength(demuxFlow(packetDropped))
attr title "flow specific dropped packet lengths, sum"
attr unit b
statistic GptpAndTasShowcase.tsnClock1.ethernet.fcsChecker flowDroppedPacketLengths:histogram
field count 0
field mean -nan
field stddev nan
field min nan
field max nan
field sum 0
field sqrsum 0
attr interpolationmode none
attr recordingmode histogram
attr source packetLength(demuxFlow(packetDropped))
attr title "flow specific dropped packet lengths"
attr unit b
bin	-inf	0
bin	0	0
bin	1	0
scalar GptpAndTasShowcase.tsnClock1.lo[0].lo rcvdPkFromHl:count 0
attr interpolationmode none
attr recordingmode count
attr source packetReceivedFromUpper
attr title "packets received from higher layer, count"
scalar GptpAndTasShowcase.tsnClock1.lo[0].lo rcvdPkFromHl:sum(packetBytes) 0
attr interpolationmode none
attr recordingmode sum(packetBytes)
attr source packetReceivedFromUpper
attr title "packets received from higher layer, sum(packetBytes)"
scalar GptpAndTasShowcase.tsnClock1.lo[0].lo passedUpPk:count 0
attr interpolationmode none
attr recordingmode count
attr source packetSentToUpper
attr title "packets passed to higher layer, count"
scalar GptpAndTasShowcase.tsnClock1.lo[0].lo passedUpPk:sum(packetBytes) 0
attr interpolationmode none
attr recordingmode sum(packetBytes)
attr source packetSentToUpper
attr title "packets passed to higher layer, sum(packetBytes)"
scalar GptpAndTasShowcase.tsnClock1.lo[0] packetDropInterfaceDown:count 0
attr interpolationmode none
attr recordingmode count
attr source packetDropReasonIsInterfaceDown(packetDropped)
attr title "packet drops: interface down, count"
scalar GptpAndTasShowcase.tsnClock1.lo[0] packetDropInterfaceDown:sum(packetBytes) 0
attr interpolationmode none
attr recordingmode sum(packetBytes)
attr source packetDropReasonIsInterfaceDown(packetDropped)
attr title "packet drops: interface down, sum(packetBytes)"
scalar GptpAndTasShowcase.tsnClock1.lo[0] packetDropNoCarrier:count 0
attr interpolationmode none
attr recordingmode count
attr source packetDropReasonIsNoCarrier(packetDropped)
attr title "packet drops: no carrier, count"
scalar GptpAndTasShowcase.tsnClock1.lo[0] packetDropNoCarrier:sum(packetBytes) 0
attr interpolationmode none
attr recordingmode sum(packetBytes)
attr source packetDropReasonIsNoCarrier(packetDropped)
attr title "packet drops: no carrier, sum(packetBytes)"
scalar GptpAndTasShowcase.tsnClock1.eth[0].macLayer.queue queueLength:last 0
attr autoWarmupFilter false
attr interpolationmode sample-hold
attr recordingmode last
attr source "warmup(atomic(constant0(packetPushEnded) + count(packetPushStarted) - count(packetPulled) - count(packetRemoved) - count(packetDropped)))"
attr title "queue length, last"
attr unit pk
scalar GptpAndTasShowcase.tsnClock1.eth[0].macLayer.queue queueLength:max 2
attr autoWarmupFilter false
attr interpolationmode sample-hold
attr recordingmode max
attr source "warmup(atomic(constant0(packetPushEnded) + count(packetPushStarted) - count(packetPulled) - count(packetRemoved) - count(packetDropped)))"
attr title "queue length, max"
attr unit pk
scalar GptpAndTasShowcase.tsnClock1.eth[0].macLayer.queue queueLength:timeavg 1.0480299856101e-05
attr autoWarmupFilter false
attr interpolationmode sample-hold
attr recordingmode timeavg
attr source "warmup(atomic(constant0(packetPushEnded) + count(packetPushStarted) - count(packetPulled) - count(packetRemoved) - count(packetDropped)))"
attr title "queue length, timeavg"
attr unit pk
scalar GptpAndTasShowcase.tsnClock1.eth[0].macLayer.queue queueBitLength:last 0
attr autoWarmupFilter false
attr interpolationmode sample-hold
attr recordingmode last
attr source "warmup(atomic(constant0(packetPushEnded) + sum(packetLength(packetPushStarted)) - sum(packetLength(packetPulled)) - sum(packetLength(packetRemoved)) - sum(packetLength(packetDropped))))"
attr title "queue bit length, last"
attr unit b
scalar GptpAndTasShowcase.tsnClock1.eth[0].macLayer.queue queueBitLength:max 1152
attr autoWarmupFilter false
attr interpolationmode sample-hold
attr recordingmode max
attr source "warmup(atomic(constant0(packetPushEnded) + sum(packetLength(packetPushStarted)) - sum(packetLength(packetPulled)) - sum(packetLength(packetRemoved)) - sum(packetLength(packetDropped))))"
attr title "queue bit length, max"
attr unit b
scalar GptpAndTasShowcase.tsnClock1.eth[0].macLayer.queue queueBitLength:timeavg 0.0073883713916843
attr autoWarmupFilter false
attr interpolationmode sample-hold
attr recordingmode timeavg
attr source "warmup(atomic(constant0(packetPushEnded) + sum(packetLength(packetPushStarted)) - sum(packetLength(packetPulled)) - sum(packetLength(packetRemoved)) - sum(packetLength(packetDropped))))"
attr title "queue bit length, timeavg"
attr unit b
statistic GptpAndTasShowcase.tsnClock1.eth[0].macLayer.queue queueingTime:histogram
field count 72
field mean 5.8222222222222e-07
field stddev 9.4153339453274e-07
field min 0
field max 7.36e-06
field sum 4.192e-05
field sqrsum 8.73472e-11
attr interpolationmode none
attr recordingmode histogram
attr source queueingTime(packetPulled)
attr title "queueing times"
attr unit s
bin	-inf	0
bin	0	35
bin	2e-07	0
bin	4e-07	0
bin	6e-07	0
bin	8e-07	36
bin	1e-06	0
bin	1.2e-06	0
bin	1.4e-06	0
bin	1.6e-06	0
bin	1.8e-06	0
bin	2e-06	0
bin	2.2e-06	0
bin	2.4e-06	0
bin	2.6e-06	0
bin	2.8e-06	0
bin	3e-06	0
bin	3.2e-06	0
bin	3.4e-06	0
bin	3.6e-06	0
bin	3.8e-06	0
bin	4e-06	0
bin	4.2e-06	0
bin	4.4e-06	0
bin	4.6e-06	0
bin	4.8e-06	0
bin	5e-06	0
bin	5.2e-06	0
bin	5.4e-06	0
bin	5.6e-06	0
bin	5.8e-06	0
bin	6e-06	0
bin	6.2e-06	0
bin	6.4e-06	0
bin	6.6e-06	0
bin	6.8e-06	0
bin	7e-06	0
bin	7.2e-06	1
bin	7.4e-06	0
bin	7.6e-06	0
bin	7.8e-06	0
bin	8e-06	0
bin	8.2e-06	0
bin	8.4e-06	0
bin	8.6e-06	0
bin	8.8e-06	0
bin	9e-06	0
bin	9.2e-06	0
scalar GptpAndTasShowcase.tsnClock1.eth[0].macLayer.queue outgoingPackets:count 72
attr recordingmode count
attr source packetPulled
attr title "outgoing packets, count"
attr unit pk
scalar GptpAndTasShowcase.tsnClock1.eth[0].macLayer.queue outgoingPacketLengths:sum 45056
attr interpolationmode none
attr recordingmode sum
attr source packetLength(packetPulled)
attr title "outgoing packet lengths, sum"
attr unit b
statistic GptpAndTasShowcase.tsnClock1.eth[0].macLayer.queue outgoingPacketLengths:histogram
field count 72
field mean 625.77777777778
field stddev 115.30122487192
field min 512
field max 752
field sum 45056
field sqrsum 29138944
attr interpolationmode none
attr recordingmode histogram
attr source packetLength(packetPulled)
attr title "outgoing packet lengths"
attr unit b
bin	-inf	0
bin	450	0
bin	455	0
bin	460	0
bin	465	0
bin	470	0
bin	475	0
bin	480	0
bin	485	0
bin	490	0
bin	495	0
bin	500	0
bin	505	0
bin	510	32
bin	515	0
bin	520	0
bin	525	0
bin	530	0
bin	535	0
bin	540	0
bin	545	0
bin	550	0
bin	555	0
bin	560	0
bin	565	0
bin	570	0
bin	575	8
bin	580	0
bin	585	0
bin	590	0
bin	595	0
bin	600	0
bin	605	0
bin	610	0
bin	615	0
bin	620	0
bin	625	0
bin	630	0
bin	635	0
bin	640	0
bin	645	0
bin	650	0
bin	655	0
bin	660	0
bin	665	0
bin	670	0
bin	675	0
bin	680	0
bin	685	0
bin	690	0
bin	695	0
bin	700	0
bin	705	0
bin	710	0
bin	715	0
bin	720	0
bin	725	0
bin	730	0
bin	735	0
bin	740	0
bin	745	0
bin	750	32
bin	755	0
bin	760	0
bin	765	0
bin	770	0
bin	775	0
bin	780	0
bin	785	0
bin	790	0
bin	795	0
bin	800	0
bin	805	0
bin	810	0
bin	815	0
statistic GptpAndTasShowcase.tsnClock1.eth[0].macLayer.queue flowQueueingTime:histogram
field count 0
field mean -nan
field stddev nan
field min nan
field max nan
field sum 0
field sqrsum 0
attr interpolationmode none
attr recordingmode histogram
attr source queueingTime(demuxFlow(packetPulled))
attr title "flow queueing times"
attr unit s
bin	-inf	0
bin	0	0
bin	1	0
scalar GptpAndTasShowcase.tsnClock1.eth[0].macLayer.queue incomingPackets:count 72
attr recordingmode count
attr source packetPushStarted
attr title "incoming packets, count"
attr unit pk
scalar GptpAndTasShowcase.tsnClock1.eth[0].macLayer.queue incomingPacketLengths:sum 45056
attr interpolationmode none
attr recordingmode sum
attr source packetLength(packetPushStarted)
attr title "incoming packet lengths, sum"
attr unit b
statistic GptpAndTasShowcase.tsnClock1.eth[0].macLayer.queue incomingPacketLengths:histogram
field count 72
field mean 625.77777777778
field stddev 115.30122487192
field min 512
field max 752
field sum 45056
field sqrsum 29138944
attr interpolationmode none
attr recordingmode histogram
attr source packetLength(packetPushStarted)
attr title "incoming packet lengths"
attr unit b
bin	-inf	0
bin	450	0
bin	455	0
bin	460	0
bin	465	0
bin	470	0
bin	475	0
bin	480	0
bin	485	0
bin	490	0
bin	495	0
bin	500	0
bin	505	0
bin	510	32
bin	515	0
bin	520	0
bin	525	0
bin	530	0
bin	535	0
bin	540	0
bin	545	0
bin	550	0
bin	555	0
bin	560	0
bin	565	0
bin	570	0
bin	575	8
bin	580	0
bin	585	0
bin	590	0
bin	595	0
bin	600	0
bin	605	0
bin	610	0
bin	615	0
bin	620	0
bin	625	0
bin	630	0
bin	635	0
bin	640	0
bin	645	0
bin	650	0
bin	655	0
bin	660	0
bin	665	0
bin	670	0
bin	675	0
bin	680	0
bin	685	0
bin	690	0
bin	695	0
bin	700	0
bin	705	0
bin	710	0
bin	715	0
bin	720	0
bin	725	0
bin	730	0
bin	735	0
bin	740	0
bin	745	0
bin	750	32
bin	755	0
bin	760	0
bin	765	0
bin	770	0
bin	775	0
bin	780	0
bin	785	0
bin	790	0
bin	795	0
bin	800	0
bin	805	0
bin	810	0
bin	815	0
scalar GptpAndTasShowcase.tsnClock1.eth[0].macLayer.queue droppedPacketsQueueOverflow:count 0
attr interpolationmode none
attr recordingmode count
attr source packetDropReasonIsQueueOverflow(packetDropped)
attr title "dropped packets: queue overflow, count"
attr unit pk
scalar GptpAndTasShowcase.tsnClock1.eth[0].macLayer.queue droppedPacketLengthsQueueOverflow:sum 0
attr interpolationmode none
attr recordingmode sum
attr source packetLength(packetDropReasonIsQueueOverflow(packetDropped))
attr title "dropped packet lengths: queue overflow, sum"
attr unit b
scalar GptpAndTasShowcase.tsnClock1.eth[0].macLayer.server incomingPackets:count 72
attr recordingmode count
attr source packetPulled
attr title "incoming packets, count"
attr unit pk
scalar GptpAndTasShowcase.tsnClock1.eth[0].macLayer.server incomingPacketLengths:sum 45056
attr interpolationmode none
attr recordingmode sum
attr source packetLength(packetPulled)
attr title "incoming packet lengths, sum"
attr unit b
statistic GptpAndTasShowcase.tsnClock1.eth[0].macLayer.server incomingPacketLengths:histogram
field count 72
field mean 625.77777777778
field stddev 115.30122487192
field min 512
field max 752
field sum 45056
field sqrsum 29138944
attr interpolationmode none
attr recordingmode histogram
attr source packetLength(packetPulled)
attr title "incoming packet lengths"
attr unit b
bin	-inf	0
bin	450	0
bin	455	0
bin	460	0
bin	465	0
bin	470	0
bin	475	0
bin	480	0
bin	485	0
bin	490	0
bin	495	0
bin	500	0
bin	505	0
bin	510	32
bin	515	0
bin	520	0
bin	525	0
bin	530	0
bin	535	0
bin	540	0
bin	545	0
bin	550	0
bin	555	0
bin	560	0
bin	565	0
bin	570	0
bin	575	8
bin	580	0
bin	585	0
bin	590	0
bin	595	0
bin	600	0
bin	605	0
bin	610	0
bin	615	0
bin	620	0
bin	625	0
bin	630	0
bin	635	0
bin	640	0
bin	645	0
bin	650	0
bin	655	0
bin	660	0
bin	665	0
bin	670	0
bin	675	0
bin	680	0
bin	685	0
bin	690	0
bin	695	0
bin	700	0
bin	705	0
bin	710	0
bin	715	0
bin	720	0
bin	725	0
bin	730	0
bin	735	0
bin	740	0
bin	745	0
bin	750	32
bin	755	0
bin	760	0
bin	765	0
bin	770	0
bin	775	0
bin	780	0
bin	785	0
bin	790	0
bin	795	0
bin	800	0
bin	805	0
bin	810	0
bin	815	0
scalar GptpAndTasShowcase.tsnClock1.eth[0].macLayer.server outgoingPackets:count 72
attr recordingmode count
attr source packetPushed
attr title "outgoing packets, count"
attr unit pk
scalar GptpAndTasShowcase.tsnClock1.eth[0].macLayer.server outgoingPacketLengths:sum 45056
attr interpolationmode none
attr recordingmode sum
attr source packetLength(packetPushed)
attr title "outgoing packet lengths, sum"
attr unit b
statistic GptpAndTasShowcase.tsnClock1.eth[0].macLayer.server outgoingPacketLengths:histogram
field count 72
field mean 625.77777777778
field stddev 115.30122487192
field min 512
field max 752
field sum 45056
field sqrsum 29138944
attr interpolationmode none
attr recordingmode histogram
attr source packetLength(packetPushed)
attr title "outgoing packet lengths"
attr unit b
bin	-inf	0
bin	450	0
bin	455	0
bin	460	0
bin	465	0
bin	470	0
bin	475	0
bin	480	0
bin	485	0
bin	490	0
bin	495	0
bin	500	0
bin	505	0
bin	510	32
bin	515	0
bin	520	0
bin	525	0
bin	530	0
bin	535	0
bin	540	0
bin	545	0
bin	550	0
bin	555	0
bin	560	0
bin	565	0
bin	570	0
bin	575	8
bin	580	0
bin	585	0
bin	590	0
bin	595	0
bin	600	0
bin	605	0
bin	610	0
bin	615	0
bin	620	0
bin	625	0
bin	630	0
bin	635	0
bin	640	0
bin	645	0
bin	650	0
bin	655	0
bin	660	0
bin	665	0
bin	670	0
bin	675	0
bin	680	0
bin	685	0
bin	690	0
bin	695	0
bin	700	0
bin	705	0
bin	710	0
bin	715	0
bin	720	0
bin	725	0
bin	730	0
bin	735	0
bin	740	0
bin	745	0
bin	750	32
bin	755	0
bin	760	0
bin	765	0
bin	770	0
bin	775	0
bin	780	0
bin	785	0
bin	790	0
bin	795	0
bin	800	0
bin	805	0
bin	810	0
bin	815	0
scalar GptpAndTasShowcase.tsnClock1.eth[0].macLayer.outboundEmitter outgoingPackets:count 72
attr recordingmode count
attr source "merge(packetPushedOut, packetPulledOut)"
attr title "outgoing packets, count"
attr unit pk
scalar GptpAndTasShowcase.tsnClock1.eth[0].macLayer.outboundEmitter outgoingPacketLengths:sum 45056
attr interpolationmode none
attr recordingmode sum
attr source "packetLength(merge(packetPushedOut, packetPulledOut))"
attr title "outgoing packet lengths, sum"
attr unit b
statistic GptpAndTasShowcase.tsnClock1.eth[0].macLayer.outboundEmitter outgoingPacketLengths:histogram
field count 72
field mean 625.77777777778
field stddev 115.30122487192
field min 512
field max 752
field sum 45056
field sqrsum 29138944
attr interpolationmode none
attr recordingmode histogram
attr source "packetLength(merge(packetPushedOut, packetPulledOut))"
attr title "outgoing packet lengths"
attr unit b
bin	-inf	0
bin	450	0
bin	455	0
bin	460	0
bin	465	0
bin	470	0
bin	475	0
bin	480	0
bin	485	0
bin	490	0
bin	495	0
bin	500	0
bin	505	0
bin	510	32
bin	515	0
bin	520	0
bin	525	0
bin	530	0
bin	535	0
bin	540	0
bin	545	0
bin	550	0
bin	555	0
bin	560	0
bin	565	0
bin	570	0
bin	575	8
bin	580	0
bin	585	0
bin	590	0
bin	595	0
bin	600	0
bin	605	0
bin	610	0
bin	615	0
bin	620	0
bin	625	0
bin	630	0
bin	635	0
bin	640	0
bin	645	0
bin	650	0
bin	655	0
bin	660	0
bin	665	0
bin	670	0
bin	675	0
bin	680	0
bin	685	0
bin	690	0
bin	695	0
bin	700	0
bin	705	0
bin	710	0
bin	715	0
bin	720	0
bin	725	0
bin	730	0
bin	735	0
bin	740	0
bin	745	0
bin	750	32
bin	755	0
bin	760	0
bin	765	0
bin	770	0
bin	775	0
bin	780	0
bin	785	0
bin	790	0
bin	795	0
bin	800	0
bin	805	0
bin	810	0
bin	815	0
scalar GptpAndTasShowcase.tsnClock1.eth[0].macLayer.outboundEmitter flowOutgoingPacketLengths:sum 0
attr interpolationmode none
attr recordingmode sum
attr source "packetLength(demuxFlow(merge(packetPushedOut, packetPulledOut)))"
attr title "flow specific outgoing packet lengths, sum"
attr unit b
statistic GptpAndTasShowcase.tsnClock1.eth[0].macLayer.outboundEmitter flowOutgoingPacketLengths:histogram
field count 0
field mean -nan
field stddev nan
field min nan
field max nan
field sum 0
field sqrsum 0
attr interpolationmode none
attr recordingmode histogram
attr source "packetLength(demuxFlow(merge(packetPushedOut, packetPulledOut)))"
attr title "flow specific outgoing packet lengths"
attr unit b
bin	-inf	0
bin	0	0
bin	1	0
scalar GptpAndTasShowcase.tsnClock1.eth[0].macLayer.outboundEmitter incomingPackets:count 72
attr recordingmode count
attr source "merge(packetPushedIn, packetPulledIn)"
attr title "incoming packets, count"
attr unit pk
scalar GptpAndTasShowcase.tsnClock1.eth[0].macLayer.outboundEmitter incomingPacketLengths:sum 45056
attr interpolationmode none
attr recordingmode sum
attr source "packetLength(merge(packetPushedIn, packetPulledIn))"
attr title "incoming packet lengths, sum"
attr unit b
statistic GptpAndTasShowcase.tsnClock1.eth[0].macLayer.outboundEmitter incomingPacketLengths:histogram
field count 72
field mean 625.77777777778
field stddev 115.30122487192
field min 512
field max 752
field sum 45056
field sqrsum 29138944
attr interpolationmode none
attr recordingmode histogram
attr source "packetLength(merge(packetPushedIn, packetPulledIn))"
attr title "incoming packet lengths"
attr unit b
bin	-inf	0
bin	450	0
bin	455	0
bin	460	0
bin	465	0
bin	470	0
bin	475	0
bin	480	0
bin	485	0
bin	490	0
bin	495	0
bin	500	0
bin	505	0
bin	510	32
bin	515	0
bin	520	0
bin	525	0
bin	530	0
bin	535	0
bin	540	0
bin	545	0
bin	550	0
bin	555	0
bin	560	0
bin	565	0
bin	570	0
bin	575	8
bin	580	0
bin	585	0
bin	590	0
bin	595	0
bin	600	0
bin	605	0
bin	610	0
bin	615	0
bin	620	0
bin	625	0
bin	630	0
bin	635	0
bin	640	0
bin	645	0
bin	650	0
bin	655	0
bin	660	0
bin	665	0
bin	670	0
bin	675	0
bin	680	0
bin	685	0
bin	690	0
bin	695	0
bin	700	0
bin	705	0
bin	710	0
bin	715	0
bin	720	0
bin	725	0
bin	730	0
bin	735	0
bin	740	0
bin	745	0
bin	750	32
bin	755	0
bin	760	0
bin	765	0
bin	770	0
bin	775	0
bin	780	0
bin	785	0
bin	790	0
bin	795	0
bin	800	0
bin	805	0
bin	810	0
bin	815	0
scalar GptpAndTasShowcase.tsnClock1.eth[0].macLayer.outboundEmitter flowIncomingPacketLengths:sum 0
attr interpolationmode none
attr recordingmode sum
attr source "packetLength(demuxFlow(merge(packetPushedIn, packetPulledIn)))"
attr title "flow specific incoming packet lengths, sum"
attr unit b
statistic GptpAndTasShowcase.tsnClock1.eth[0].macLayer.outboundEmitter flowIncomingPacketLengths:histogram
field count 0
field mean -nan
field stddev nan
field min nan
field max nan
field sum 0
field sqrsum 0
attr interpolationmode none
attr recordingmode histogram
attr source "packetLength(demuxFlow(merge(packetPushedIn, packetPulledIn)))"
attr title "flow specific incoming packet lengths"
attr unit b
bin	-inf	0
bin	0	0
bin	1	0
scalar GptpAndTasShowcase.tsnClock1.eth[0].macLayer.fcsChecker outgoingPackets:count 4
attr recordingmode count
attr source "merge(packetPushedOut, packetPulledOut)"
attr title "outgoing packets, count"
attr unit pk
scalar GptpAndTasShowcase.tsnClock1.eth[0].macLayer.fcsChecker outgoingPacketLengths:sum 2304
attr interpolationmode none
attr recordingmode sum
attr source "packetLength(merge(packetPushedOut, packetPulledOut))"
attr title "outgoing packet lengths, sum"
attr unit b
statistic GptpAndTasShowcase.tsnClock1.eth[0].macLayer.fcsChecker outgoingPacketLengths:histogram
field count 4
field mean 576
field stddev 0
field min 576
field max 576
field sum 2304
field sqrsum 1327104
attr interpolationmode none
attr recordingmode histogram
attr source "packetLength(merge(packetPushedOut, packetPulledOut))"
attr title "outgoing packet lengths"
attr unit b
bin	-inf	0
bin	575	0
bin	576	4
bin	577	0
scalar GptpAndTasShowcase.tsnClock1.eth[0].macLayer.fcsChecker flowOutgoingPacketLengths:sum 0
attr interpolationmode none
attr recordingmode sum
attr source "packetLength(demuxFlow(merge(packetPushedOut, packetPulledOut)))"
attr title "flow specific outgoing packet lengths, sum"
attr unit b
statistic GptpAndTasShowcase.tsnClock1.eth[0].macLayer.fcsChecker flowOutgoingPacketLengths:histogram
field count 0
field mean -nan
field stddev nan
field min nan
field max nan
field sum 0
field sqrsum 0
attr interpolationmode none
attr recordingmode histogram
attr source "packetLength(demuxFlow(merge(packetPushedOut, packetPulledOut)))"
attr title "flow specific outgoing packet lengths"
attr unit b
bin	-inf	0
bin	0	0
bin	1	0
scalar GptpAndTasShowcase.tsnClock1.eth[0].macLayer.fcsChecker incomingPackets:count 4
attr recordingmode count
attr source "merge(packetPushedIn, packetPulledIn)"
attr title "incoming packets, count"
attr unit pk
scalar GptpAndTasShowcase.tsnClock1.eth[0].macLayer.fcsChecker incomingPacketLengths:sum 2304
attr interpolationmode none
attr recordingmode sum
attr source "packetLength(merge(packetPushedIn, packetPulledIn))"
attr title "incoming packet lengths, sum"
attr unit b
statistic GptpAndTasShowcase.tsnClock1.eth[0].macLayer.fcsChecker incomingPacketLengths:histogram
field count 4
field mean 576
field stddev 0
field min 576
field max 576
field sum 2304
field sqrsum 1327104
attr interpolationmode none
attr recordingmode histogram
attr source "packetLength(merge(packetPushedIn, packetPulledIn))"
attr title "incoming packet lengths"
attr unit b
bin	-inf	0
bin	575	0
bin	576	4
bin	577	0
scalar GptpAndTasShowcase.tsnClock1.eth[0].macLayer.fcsChecker flowIncomingPacketLengths:sum 0
attr interpolationmode none
attr recordingmode sum
attr source "packetLength(demuxFlow(merge(packetPushedIn, packetPulledIn)))"
attr title "flow specific incoming packet lengths, sum"
attr unit b
statistic GptpAndTasShowcase.tsnClock1.eth[0].macLayer.fcsChecker flowIncomingPacketLengths:histogram
field count 0
field mean -nan
field stddev nan
field min nan
field max nan
field sum 0
field sqrsum 0
attr interpolationmode none
attr recordingmode histogram
attr source "packetLength(demuxFlow(merge(packetPushedIn, packetPulledIn)))"
attr title "flow specific incoming packet lengths"
attr unit b
bin	-inf	0
bin	0	0
bin	1	0
scalar GptpAndTasShowcase.tsnClock1.eth[0].macLayer.fcsChecker droppedPackets:count 0
attr recordingmode count
attr source packetDropped
attr title "dropped packets, count"
attr unit pk
scalar GptpAndTasShowcase.tsnClock1.eth[0].macLayer.fcsChecker droppedPacketLengths:sum 0
attr interpolationmode none
attr recordingmode sum
attr source packetLength(packetDropped)
attr title "dropped packet lengths, sum"
attr unit b
statistic GptpAndTasShowcase.tsnClock1.eth[0].macLayer.fcsChecker droppedPacketLengths:histogram
field count 0
field mean -nan
field stddev nan
field min nan
field max nan
field sum 0
field sqrsum 0
attr interpolationmode none
attr recordingmode histogram
attr source packetLength(packetDropped)
attr title "dropped packet lengths"
attr unit b
bin	-inf	0
bin	0	0
bin	1	0
scalar GptpAndTasShowcase.tsnClock1.eth[0].macLayer.fcsChecker flowDroppedPacketLengths:sum 0
attr interpolationmode none
attr recordingmode sum
attr source packetLength(demuxFlow(packetDropped))
attr title "flow specific dropped packet lengths, sum"
attr unit b
statistic GptpAndTasShowcase.tsnClock1.eth[0].macLayer.fcsChecker flowDroppedPacketLengths:histogram
field count 0
field mean -nan
field stddev nan
field min nan
field max nan
field sum 0
field sqrsum 0
attr interpolationmode none
attr recordingmode histogram
attr source packetLength(demuxFlow(packetDropped))
attr title "flow specific dropped packet lengths"
attr unit b
bin	-inf	0
bin	0	0
bin	1	0
scalar GptpAndTasShowcase.tsnClock1.eth[0].macLayer.inboundEmitter outgoingPackets:count 4
attr recordingmode count
attr source "merge(packetPushedOut, packetPulledOut)"
attr title "outgoing packets, count"
attr unit pk
scalar GptpAndTasShowcase.tsnClock1.eth[0].macLayer.inboundEmitter outgoingPacketLengths:sum 2304
attr interpolationmode none
attr recordingmode sum
attr source "packetLength(merge(packetPushedOut, packetPulledOut))"
attr title "outgoing packet lengths, sum"
attr unit b
statistic GptpAndTasShowcase.tsnClock1.eth[0].macLayer.inboundEmitter outgoingPacketLengths:histogram
field count 4
field mean 576
field stddev 0
field min 576
field max 576
field sum 2304
field sqrsum 1327104
attr interpolationmode none
attr recordingmode histogram
attr source "packetLength(merge(packetPushedOut, packetPulledOut))"
attr title "outgoing packet lengths"
attr unit b
bin	-inf	0
bin	575	0
bin	576	4
bin	577	0
scalar GptpAndTasShowcase.tsnClock1.eth[0].macLayer.inboundEmitter flowOutgoingPacketLengths:sum 0
attr interpolationmode none
attr recordingmode sum
attr source "packetLength(demuxFlow(merge(packetPushedOut, packetPulledOut)))"
attr title "flow specific outgoing packet lengths, sum"
attr unit b
statistic GptpAndTasShowcase.tsnClock1.eth[0].macLayer.inboundEmitter flowOutgoingPacketLengths:histogram
field count 0
field mean -nan
field stddev nan
field min nan
field max nan
field sum 0
field sqrsum 0
attr interpolationmode none
attr recordingmode histogram
attr source "packetLength(demuxFlow(merge(packetPushedOut, packetPulledOut)))"
attr title "flow specific outgoing packet lengths"
attr unit b
bin	-inf	0
bin	0	0
bin	1	0
scalar GptpAndTasShowcase.tsnClock1.eth[0].macLayer.inboundEmitter incomingPackets:count 4
attr recordingmode count
attr source "merge(packetPushedIn, packetPulledIn)"
attr title "incoming packets, count"
attr unit pk
scalar GptpAndTasShowcase.tsnClock1.eth[0].macLayer.inboundEmitter incomingPacketLengths:sum 2304
attr interpolationmode none
attr recordingmode sum
attr source "packetLength(merge(packetPushedIn, packetPulledIn))"
attr title "incoming packet lengths, sum"
attr unit b
statistic GptpAndTasShowcase.tsnClock1.eth[0].macLayer.inboundEmitter incomingPacketLengths:histogram
field count 4
field mean 576
field stddev 0
field min 576
field max 576
field sum 2304
field sqrsum 1327104
attr interpolationmode none
attr recordingmode histogram
attr source "packetLength(merge(packetPushedIn, packetPulledIn))"
attr title "incoming packet lengths"
attr unit b
bin	-inf	0
bin	575	0
bin	576	4
bin	577	0
scalar GptpAndTasShowcase.tsnClock1.eth[0].macLayer.inboundEmitter flowIncomingPacketLengths:sum 0
attr interpolationmode none
attr recordingmode sum
attr source "packetLength(demuxFlow(merge(packetPushedIn, packetPulledIn)))"
attr title "flow specific incoming packet lengths, sum"
attr unit b
statistic GptpAndTasShowcase.tsnClock1.eth[0].macLayer.inboundEmitter flowIncomingPacketLengths:histogram
field count 0
field mean -nan
field stddev nan
field min nan
field max nan
field sum 0
field sqrsum 0
attr interpolationmode none
attr recordingmode histogram
attr source "packetLength(demuxFlow(merge(packetPushedIn, packetPulledIn)))"
attr title "flow specific incoming packet lengths"
attr unit b
bin	-inf	0
bin	0	0
bin	1	0
scalar GptpAndTasShowcase.tsnClock1.eth[0].phyLayer.phyHeaderInserter outgoingPackets:count 72
attr recordingmode count
attr source "merge(packetPushedOut, packetPulledOut)"
attr title "outgoing packets, count"
attr unit pk
scalar GptpAndTasShowcase.tsnClock1.eth[0].phyLayer.phyHeaderInserter outgoingPacketLengths:sum 49664
attr interpolationmode none
attr recordingmode sum
attr source "packetLength(merge(packetPushedOut, packetPulledOut))"
attr title "outgoing packet lengths, sum"
attr unit b
statistic GptpAndTasShowcase.tsnClock1.eth[0].phyLayer.phyHeaderInserter outgoingPacketLengths:histogram
field count 72
field mean 689.77777777778
field stddev 115.30122487192
field min 576
field max 816
field sum 49664
field sqrsum 35201024
attr interpolationmode none
attr recordingmode histogram
attr source "packetLength(merge(packetPushedOut, packetPulledOut))"
attr title "outgoing packet lengths"
attr unit b
bin	-inf	0
bin	515	0
bin	520	0
bin	525	0
bin	530	0
bin	535	0
bin	540	0
bin	545	0
bin	550	0
bin	555	0
bin	560	0
bin	565	0
bin	570	0
bin	575	32
bin	580	0
bin	585	0
bin	590	0
bin	595	0
bin	600	0
bin	605	0
bin	610	0
bin	615	0
bin	620	0
bin	625	0
bin	630	0
bin	635	0
bin	640	8
bin	645	0
bin	650	0
bin	655	0
bin	660	0
bin	665	0
bin	670	0
bin	675	0
bin	680	0
bin	685	0
bin	690	0
bin	695	0
bin	700	0
bin	705	0
bin	710	0
bin	715	0
bin	720	0
bin	725	0
bin	730	0
bin	735	0
bin	740	0
bin	745	0
bin	750	0
bin	755	0
bin	760	0
bin	765	0
bin	770	0
bin	775	0
bin	780	0
bin	785	0
bin	790	0
bin	795	0
bin	800	0
bin	805	0
bin	810	0
bin	815	32
bin	820	0
bin	825	0
bin	830	0
bin	835	0
bin	840	0
bin	845	0
bin	850	0
bin	855	0
bin	860	0
bin	865	0
bin	870	0
bin	875	0
bin	880	0
scalar GptpAndTasShowcase.tsnClock1.eth[0].phyLayer.phyHeaderInserter flowOutgoingPacketLengths:sum 0
attr interpolationmode none
attr recordingmode sum
attr source "packetLength(demuxFlow(merge(packetPushedOut, packetPulledOut)))"
attr title "flow specific outgoing packet lengths, sum"
attr unit b
statistic GptpAndTasShowcase.tsnClock1.eth[0].phyLayer.phyHeaderInserter flowOutgoingPacketLengths:histogram
field count 0
field mean -nan
field stddev nan
field min nan
field max nan
field sum 0
field sqrsum 0
attr interpolationmode none
attr recordingmode histogram
attr source "packetLength(demuxFlow(merge(packetPushedOut, packetPulledOut)))"
attr title "flow specific outgoing packet lengths"
attr unit b
bin	-inf	0
bin	0	0
bin	1	0
scalar GptpAndTasShowcase.tsnClock1.eth[0].phyLayer.phyHeaderInserter incomingPackets:count 72
attr recordingmode count
attr source "merge(packetPushedIn, packetPulledIn)"
attr title "incoming packets, count"
attr unit pk
scalar GptpAndTasShowcase.tsnClock1.eth[0].phyLayer.phyHeaderInserter incomingPacketLengths:sum 45056
attr interpolationmode none
attr recordingmode sum
attr source "packetLength(merge(packetPushedIn, packetPulledIn))"
attr title "incoming packet lengths, sum"
attr unit b
statistic GptpAndTasShowcase.tsnClock1.eth[0].phyLayer.phyHeaderInserter incomingPacketLengths:histogram
field count 72
field mean 625.77777777778
field stddev 115.30122487192
field min 512
field max 752
field sum 45056
field sqrsum 29138944
attr interpolationmode none
attr recordingmode histogram
attr source "packetLength(merge(packetPushedIn, packetPulledIn))"
attr title "incoming packet lengths"
attr unit b
bin	-inf	0
bin	450	0
bin	455	0
bin	460	0
bin	465	0
bin	470	0
bin	475	0
bin	480	0
bin	485	0
bin	490	0
bin	495	0
bin	500	0
bin	505	0
bin	510	32
bin	515	0
bin	520	0
bin	525	0
bin	530	0
bin	535	0
bin	540	0
bin	545	0
bin	550	0
bin	555	0
bin	560	0
bin	565	0
bin	570	0
bin	575	8
bin	580	0
bin	585	0
bin	590	0
bin	595	0
bin	600	0
bin	605	0
bin	610	0
bin	615	0
bin	620	0
bin	625	0
bin	630	0
bin	635	0
bin	640	0
bin	645	0
bin	650	0
bin	655	0
bin	660	0
bin	665	0
bin	670	0
bin	675	0
bin	680	0
bin	685	0
bin	690	0
bin	695	0
bin	700	0
bin	705	0
bin	710	0
bin	715	0
bin	720	0
bin	725	0
bin	730	0
bin	735	0
bin	740	0
bin	745	0
bin	750	32
bin	755	0
bin	760	0
bin	765	0
bin	770	0
bin	775	0
bin	780	0
bin	785	0
bin	790	0
bin	795	0
bin	800	0
bin	805	0
bin	810	0
bin	815	0
scalar GptpAndTasShowcase.tsnClock1.eth[0].phyLayer.phyHeaderInserter flowIncomingPacketLengths:sum 0
attr interpolationmode none
attr recordingmode sum
attr source "packetLength(demuxFlow(merge(packetPushedIn, packetPulledIn)))"
attr title "flow specific incoming packet lengths, sum"
attr unit b
statistic GptpAndTasShowcase.tsnClock1.eth[0].phyLayer.phyHeaderInserter flowIncomingPacketLengths:histogram
field count 0
field mean -nan
field stddev nan
field min nan
field max nan
field sum 0
field sqrsum 0
attr interpolationmode none
attr recordingmode histogram
attr source "packetLength(demuxFlow(merge(packetPushedIn, packetPulledIn)))"
attr title "flow specific incoming packet lengths"
attr unit b
bin	-inf	0
bin	0	0
bin	1	0
scalar GptpAndTasShowcase.tsnClock1.eth[0].phyLayer.outboundEmitter outgoingPackets:count 72
attr recordingmode count
attr source "merge(packetPushedOut, packetPulledOut)"
attr title "outgoing packets, count"
attr unit pk
scalar GptpAndTasShowcase.tsnClock1.eth[0].phyLayer.outboundEmitter outgoingPacketLengths:sum 49664
attr interpolationmode none
attr recordingmode sum
attr source "packetLength(merge(packetPushedOut, packetPulledOut))"
attr title "outgoing packet lengths, sum"
attr unit b
statistic GptpAndTasShowcase.tsnClock1.eth[0].phyLayer.outboundEmitter outgoingPacketLengths:histogram
field count 72
field mean 689.77777777778
field stddev 115.30122487192
field min 576
field max 816
field sum 49664
field sqrsum 35201024
attr interpolationmode none
attr recordingmode histogram
attr source "packetLength(merge(packetPushedOut, packetPulledOut))"
attr title "outgoing packet lengths"
attr unit b
bin	-inf	0
bin	515	0
bin	520	0
bin	525	0
bin	530	0
bin	535	0
bin	540	0
bin	545	0
bin	550	0
bin	555	0
bin	560	0
bin	565	0
bin	570	0
bin	575	32
bin	580	0
bin	585	0
bin	590	0
bin	595	0
bin	600	0
bin	605	0
bin	610	0
bin	615	0
bin	620	0
bin	625	0
bin	630	0
bin	635	0
bin	640	8
bin	645	0
bin	650	0
bin	655	0
bin	660	0
bin	665	0
bin	670	0
bin	675	0
bin	680	0
bin	685	0
bin	690	0
bin	695	0
bin	700	0
bin	705	0
bin	710	0
bin	715	0
bin	720	0
bin	725	0
bin	730	0
bin	735	0
bin	740	0
bin	745	0
bin	750	0
bin	755	0
bin	760	0
bin	765	0
bin	770	0
bin	775	0
bin	780	0
bin	785	0
bin	790	0
bin	795	0
bin	800	0
bin	805	0
bin	810	0
bin	815	32
bin	820	0
bin	825	0
bin	830	0
bin	835	0
bin	840	0
bin	845	0
bin	850	0
bin	855	0
bin	860	0
bin	865	0
bin	870	0
bin	875	0
bin	880	0
scalar GptpAndTasShowcase.tsnClock1.eth[0].phyLayer.outboundEmitter flowOutgoingPacketLengths:sum 0
attr interpolationmode none
attr recordingmode sum
attr source "packetLength(demuxFlow(merge(packetPushedOut, packetPulledOut)))"
attr title "flow specific outgoing packet lengths, sum"
attr unit b
statistic GptpAndTasShowcase.tsnClock1.eth[0].phyLayer.outboundEmitter flowOutgoingPacketLengths:histogram
field count 0
field mean -nan
field stddev nan
field min nan
field max nan
field sum 0
field sqrsum 0
attr interpolationmode none
attr recordingmode histogram
attr source "packetLength(demuxFlow(merge(packetPushedOut, packetPulledOut)))"
attr title "flow specific outgoing packet lengths"
attr unit b
bin	-inf	0
bin	0	0
bin	1	0
scalar GptpAndTasShowcase.tsnClock1.eth[0].phyLayer.outboundEmitter incomingPackets:count 72
attr recordingmode count
attr source "merge(packetPushedIn, packetPulledIn)"
attr title "incoming packets, count"
attr unit pk
scalar GptpAndTasShowcase.tsnClock1.eth[0].phyLayer.outboundEmitter incomingPacketLengths:sum 49664
attr interpolationmode none
attr recordingmode sum
attr source "packetLength(merge(packetPushedIn, packetPulledIn))"
attr title "incoming packet lengths, sum"
attr unit b
statistic GptpAndTasShowcase.tsnClock1.eth[0].phyLayer.outboundEmitter incomingPacketLengths:histogram
field count 72
field mean 689.77777777778
field stddev 115.30122487192
field min 576
field max 816
field sum 49664
field sqrsum 35201024
attr interpolationmode none
attr recordingmode histogram
attr source "packetLength(merge(packetPushedIn, packetPulledIn))"
attr title "incoming packet lengths"
attr unit b
bin	-inf	0
bin	515	0
bin	520	0
bin	525	0
bin	530	0
bin	535	0
bin	540	0
bin	545	0
bin	550	0
bin	555	0
bin	560	0
bin	565	0
bin	570	0
bin	575	32
bin	580	0
bin	585	0
bin	590	0
bin	595	0
bin	600	0
bin	605	0
bin	610	0
bin	615	0
bin	620	0
bin	625	0
bin	630	0
bin	635	0
bin	640	8
bin	645	0
bin	650	0
bin	655	0
bin	660	0
bin	665	0
bin	670	0
bin	675	0
bin	680	0
bin	685	0
bin	690	0
bin	695	0
bin	700	0
bin	705	0
bin	710	0
bin	715	0
bin	720	0
bin	725	0
bin	730	0
bin	735	0
bin	740	0
bin	745	0
bin	750	0
bin	755	0
bin	760	0
bin	765	0
bin	770	0
bin	775	0
bin	780	0
bin	785	0
bin	790	0
bin	795	0
bin	800	0
bin	805	0
bin	810	0
bin	815	32
bin	820	0
bin	825	0
bin	830	0
bin	835	0
bin	840	0
bin	845	0
bin	850	0
bin	855	0
bin	860	0
bin	865	0
bin	870	0
bin	875	0
bin	880	0
scalar GptpAndTasShowcase.tsnClock1.eth[0].phyLayer.outboundEmitter flowIncomingPacketLengths:sum 0
attr interpolationmode none
attr recordingmode sum
attr source "packetLength(demuxFlow(merge(packetPushedIn, packetPulledIn)))"
attr title "flow specific incoming packet lengths, sum"
attr unit b
statistic GptpAndTasShowcase.tsnClock1.eth[0].phyLayer.outboundEmitter flowIncomingPacketLengths:histogram
field count 0
field mean -nan
field stddev nan
field min nan
field max nan
field sum 0
field sqrsum 0
attr interpolationmode none
attr recordingmode histogram
attr source "packetLength(demuxFlow(merge(packetPushedIn, packetPulledIn)))"
attr title "flow specific incoming packet lengths"
attr unit b
bin	-inf	0
bin	0	0
bin	1	0
statistic GptpAndTasShowcase.tsnClock1.eth[0].phyLayer.transmitter utilization:histogram
field count 19
field mean 0.024673684210526
field stddev 0.012180051181486
field min 0.01392
field max 0.05344
field sum 0.4688
field sqrsum 0.0142373888
attr interpolationmode linear
attr recordingmode histogram
attr source "100 * utilization(count(transmissionStarted) - count(transmissionEnded))"
attr title utilization
attr unit %
bin	-inf	0
bin	0.004	0
bin	0.005	0
bin	0.006	0
bin	0.007	0
bin	0.008	0
bin	0.009	0
bin	0.01	0
bin	0.011	0
bin	0.012	0
bin	0.013	8
bin	0.014	0
bin	0.015	0
bin	0.016	0
bin	0.017	0
bin	0.018	0
bin	0.019	0
bin	0.02	0
bin	0.021	0
bin	0.022	0
bin	0.023	0
bin	0.024	0
bin	0.025	0
bin	0.026	0
bin	0.027	9
bin	0.028	0
bin	0.029	0
bin	0.03	0
bin	0.031	0
bin	0.032	0
bin	0.033	0
bin	0.034	0
bin	0.035	0
bin	0.036	0
bin	0.037	0
bin	0.038	0
bin	0.039	0
bin	0.04	0
bin	0.041	0
bin	0.042	0
bin	0.043	0
bin	0.044	0
bin	0.045	0
bin	0.046	0
bin	0.047	0
bin	0.048	0
bin	0.049	0
bin	0.05	0
bin	0.051	0
bin	0.052	0
bin	0.053	2
bin	0.054	0
bin	0.055	0
bin	0.056	0
bin	0.057	0
bin	0.058	0
bin	0.059	0
bin	0.06	0
bin	0.061	0
bin	0.062	0
bin	0.063	0
bin	0.064	0
statistic GptpAndTasShowcase.tsnClock1.eth[0].phyLayer.transmitter transmissionTime:histogram
field count 72
field mean 6.8977777777778e-06
field stddev 1.1530122487192e-06
field min 5.76e-06
field max 8.16e-06
field sum 0.00049664
field sqrsum 3.5201024e-09
attr interpolationmode none
attr recordingmode histogram
attr source packetDuration(transmissionEnded)
attr title "transmission time"
attr unit s
bin	-inf	0
bin	5.15e-06	0
bin	5.2e-06	0
bin	5.25e-06	0
bin	5.3e-06	0
bin	5.35e-06	0
bin	5.4e-06	0
bin	5.45e-06	0
bin	5.5e-06	0
bin	5.55e-06	0
bin	5.6e-06	0
bin	5.65e-06	0
bin	5.7e-06	0
bin	5.75e-06	32
bin	5.8e-06	0
bin	5.85e-06	0
bin	5.9e-06	0
bin	5.95e-06	0
bin	6e-06	0
bin	6.05e-06	0
bin	6.1e-06	0
bin	6.15e-06	0
bin	6.2e-06	0
bin	6.25e-06	0
bin	6.3e-06	0
bin	6.35e-06	8
bin	6.4e-06	0
bin	6.45e-06	0
bin	6.5e-06	0
bin	6.55e-06	0
bin	6.6e-06	0
bin	6.65e-06	0
bin	6.7e-06	0
bin	6.75e-06	0
bin	6.8e-06	0
bin	6.85e-06	0
bin	6.9e-06	0
bin	6.95e-06	0
bin	7e-06	0
bin	7.05e-06	0
bin	7.1e-06	0
bin	7.15e-06	0
bin	7.2e-06	0
bin	7.25e-06	0
bin	7.3e-06	0
bin	7.35e-06	0
bin	7.4e-06	0
bin	7.45e-06	0
bin	7.5e-06	0
bin	7.55e-06	0
bin	7.6e-06	0
bin	7.65e-06	0
bin	7.7e-06	0
bin	7.75e-06	0
bin	7.8e-06	0
bin	7.85e-06	0
bin	7.9e-06	0
bin	7.95e-06	0
bin	8e-06	0
bin	8.05e-06	0
bin	8.1e-06	0
bin	8.15e-06	32
bin	8.2e-06	0
bin	8.25e-06	0
bin	8.3e-06	0
bin	8.35e-06	0
bin	8.4e-06	0
bin	8.45e-06	0
bin	8.5e-06	0
bin	8.55e-06	0
bin	8.6e-06	0
bin	8.65e-06	0
bin	8.7e-06	0
bin	8.75e-06	0
bin	8.8e-06	0
statistic GptpAndTasShowcase.tsnClock1.eth[0].phyLayer.transmitter flowTransmissionTime:histogram
field count 0
field mean -nan
field stddev nan
field min nan
field max nan
field sum 0
field sqrsum 0
attr interpolationmode none
attr recordingmode histogram
attr source packetDuration(demuxFlow(transmissionEnded))
attr title "flow transmission time"
attr unit s
bin	-inf	0
bin	0	0
bin	1	0
scalar GptpAndTasShowcase.tsnClock1.eth[0].phyLayer.phyHeaderChecker outgoingPackets:count 4
attr recordingmode count
attr source "merge(packetPushedOut, packetPulledOut)"
attr title "outgoing packets, count"
attr unit pk
scalar GptpAndTasShowcase.tsnClock1.eth[0].phyLayer.phyHeaderChecker outgoingPacketLengths:sum 2304
attr interpolationmode none
attr recordingmode sum
attr source "packetLength(merge(packetPushedOut, packetPulledOut))"
attr title "outgoing packet lengths, sum"
attr unit b
statistic GptpAndTasShowcase.tsnClock1.eth[0].phyLayer.phyHeaderChecker outgoingPacketLengths:histogram
field count 4
field mean 576
field stddev 0
field min 576
field max 576
field sum 2304
field sqrsum 1327104
attr interpolationmode none
attr recordingmode histogram
attr source "packetLength(merge(packetPushedOut, packetPulledOut))"
attr title "outgoing packet lengths"
attr unit b
bin	-inf	0
bin	575	0
bin	576	4
bin	577	0
scalar GptpAndTasShowcase.tsnClock1.eth[0].phyLayer.phyHeaderChecker flowOutgoingPacketLengths:sum 0
attr interpolationmode none
attr recordingmode sum
attr source "packetLength(demuxFlow(merge(packetPushedOut, packetPulledOut)))"
attr title "flow specific outgoing packet lengths, sum"
attr unit b
statistic GptpAndTasShowcase.tsnClock1.eth[0].phyLayer.phyHeaderChecker flowOutgoingPacketLengths:histogram
field count 0
field mean -nan
field stddev nan
field min nan
field max nan
field sum 0
field sqrsum 0
attr interpolationmode none
attr recordingmode histogram
attr source "packetLength(demuxFlow(merge(packetPushedOut, packetPulledOut)))"
attr title "flow specific outgoing packet lengths"
attr unit b
bin	-inf	0
bin	0	0
bin	1	0
scalar GptpAndTasShowcase.tsnClock1.eth[0].phyLayer.phyHeaderChecker incomingPackets:count 4
attr recordingmode count
attr source "merge(packetPushedIn, packetPulledIn)"
attr title "incoming packets, count"
attr unit pk
scalar GptpAndTasShowcase.tsnClock1.eth[0].phyLayer.phyHeaderChecker incomingPacketLengths:sum 2560
attr interpolationmode none
attr recordingmode sum
attr source "packetLength(merge(packetPushedIn, packetPulledIn))"
attr title "incoming packet lengths, sum"
attr unit b
statistic GptpAndTasShowcase.tsnClock1.eth[0].phyLayer.phyHeaderChecker incomingPacketLengths:histogram
field count 4
field mean 640
field stddev 0
field min 640
field max 640
field sum 2560
field sqrsum 1638400
attr interpolationmode none
attr recordingmode histogram
attr source "packetLength(merge(packetPushedIn, packetPulledIn))"
attr title "incoming packet lengths"
attr unit b
bin	-inf	0
bin	639	0
bin	640	4
bin	641	0
scalar GptpAndTasShowcase.tsnClock1.eth[0].phyLayer.phyHeaderChecker flowIncomingPacketLengths:sum 0
attr interpolationmode none
attr recordingmode sum
attr source "packetLength(demuxFlow(merge(packetPushedIn, packetPulledIn)))"
attr title "flow specific incoming packet lengths, sum"
attr unit b
statistic GptpAndTasShowcase.tsnClock1.eth[0].phyLayer.phyHeaderChecker flowIncomingPacketLengths:histogram
field count 0
field mean -nan
field stddev nan
field min nan
field max nan
field sum 0
field sqrsum 0
attr interpolationmode none
attr recordingmode histogram
attr source "packetLength(demuxFlow(merge(packetPushedIn, packetPulledIn)))"
attr title "flow specific incoming packet lengths"
attr unit b
bin	-inf	0
bin	0	0
bin	1	0
scalar GptpAndTasShowcase.tsnClock1.eth[0].phyLayer.phyHeaderChecker droppedPackets:count 0
attr recordingmode count
attr source packetDropped
attr title "dropped packets, count"
attr unit pk
scalar GptpAndTasShowcase.tsnClock1.eth[0].phyLayer.phyHeaderChecker droppedPacketLengths:sum 0
attr interpolationmode none
attr recordingmode sum
attr source packetLength(packetDropped)
attr title "dropped packet lengths, sum"
attr unit b
statistic GptpAndTasShowcase.tsnClock1.eth[0].phyLayer.phyHeaderChecker droppedPacketLengths:histogram
field count 0
field mean -nan
field stddev nan
field min nan
field max nan
field sum 0
field sqrsum 0
attr interpolationmode none
attr recordingmode histogram
attr source packetLength(packetDropped)
attr title "dropped packet lengths"
attr unit b
bin	-inf	0
bin	0	0
bin	1	0
scalar GptpAndTasShowcase.tsnClock1.eth[0].phyLayer.phyHeaderChecker flowDroppedPacketLengths:sum 0
attr interpolationmode none
attr recordingmode sum
attr source packetLength(demuxFlow(packetDropped))
attr title "flow specific dropped packet lengths, sum"
attr unit b
statistic GptpAndTasShowcase.tsnClock1.eth[0].phyLayer.phyHeaderChecker flowDroppedPacketLengths:histogram
field count 0
field mean -nan
field stddev nan
field min nan
field max nan
field sum 0
field sqrsum 0
attr interpolationmode none
attr recordingmode histogram
attr source packetLength(demuxFlow(packetDropped))
attr title "flow specific dropped packet lengths"
attr unit b
bin	-inf	0
bin	0	0
bin	1	0
scalar GptpAndTasShowcase.tsnClock1.eth[0].phyLayer.inboundEmitter outgoingPackets:count 4
attr recordingmode count
attr source "merge(packetPushedOut, packetPulledOut)"
attr title "outgoing packets, count"
attr unit pk
scalar GptpAndTasShowcase.tsnClock1.eth[0].phyLayer.inboundEmitter outgoingPacketLengths:sum 2560
attr interpolationmode none
attr recordingmode sum
attr source "packetLength(merge(packetPushedOut, packetPulledOut))"
attr title "outgoing packet lengths, sum"
attr unit b
statistic GptpAndTasShowcase.tsnClock1.eth[0].phyLayer.inboundEmitter outgoingPacketLengths:histogram
field count 4
field mean 640
field stddev 0
field min 640
field max 640
field sum 2560
field sqrsum 1638400
attr interpolationmode none
attr recordingmode histogram
attr source "packetLength(merge(packetPushedOut, packetPulledOut))"
attr title "outgoing packet lengths"
attr unit b
bin	-inf	0
bin	639	0
bin	640	4
bin	641	0
scalar GptpAndTasShowcase.tsnClock1.eth[0].phyLayer.inboundEmitter flowOutgoingPacketLengths:sum 0
attr interpolationmode none
attr recordingmode sum
attr source "packetLength(demuxFlow(merge(packetPushedOut, packetPulledOut)))"
attr title "flow specific outgoing packet lengths, sum"
attr unit b
statistic GptpAndTasShowcase.tsnClock1.eth[0].phyLayer.inboundEmitter flowOutgoingPacketLengths:histogram
field count 0
field mean -nan
field stddev nan
field min nan
field max nan
field sum 0
field sqrsum 0
attr interpolationmode none
attr recordingmode histogram
attr source "packetLength(demuxFlow(merge(packetPushedOut, packetPulledOut)))"
attr title "flow specific outgoing packet lengths"
attr unit b
bin	-inf	0
bin	0	0
bin	1	0
scalar GptpAndTasShowcase.tsnClock1.eth[0].phyLayer.inboundEmitter incomingPackets:count 4
attr recordingmode count
attr source "merge(packetPushedIn, packetPulledIn)"
attr title "incoming packets, count"
attr unit pk
scalar GptpAndTasShowcase.tsnClock1.eth[0].phyLayer.inboundEmitter incomingPacketLengths:sum 2560
attr interpolationmode none
attr recordingmode sum
attr source "packetLength(merge(packetPushedIn, packetPulledIn))"
attr title "incoming packet lengths, sum"
attr unit b
statistic GptpAndTasShowcase.tsnClock1.eth[0].phyLayer.inboundEmitter incomingPacketLengths:histogram
field count 4
field mean 640
field stddev 0
field min 640
field max 640
field sum 2560
field sqrsum 1638400
attr interpolationmode none
attr recordingmode histogram
attr source "packetLength(merge(packetPushedIn, packetPulledIn))"
attr title "incoming packet lengths"
attr unit b
bin	-inf	0
bin	639	0
bin	640	4
bin	641	0
scalar GptpAndTasShowcase.tsnClock1.eth[0].phyLayer.inboundEmitter flowIncomingPacketLengths:sum 0
attr interpolationmode none
attr recordingmode sum
attr source "packetLength(demuxFlow(merge(packetPushedIn, packetPulledIn)))"
attr title "flow specific incoming packet lengths, sum"
attr unit b
statistic GptpAndTasShowcase.tsnClock1.eth[0].phyLayer.inboundEmitter flowIncomingPacketLengths:histogram
field count 0
field mean -nan
[...]
attr unit b
bin	-inf	0
bin	0	0
bin	1	0
scalar GptpAndTasShowcase.tsnDevice4.eth[0].phyLayer.inboundEmitter incomingPackets:count 4223
attr recordingmode count
attr source "merge(packetPushedIn, packetPulledIn)"
attr title "incoming packets, count"
attr unit pk
scalar GptpAndTasShowcase.tsnDevice4.eth[0].phyLayer.inboundEmitter incomingPacketLengths:sum 2457296
attr interpolationmode none
attr recordingmode sum
attr source "packetLength(merge(packetPushedIn, packetPulledIn))"
attr title "incoming packet lengths, sum"
attr unit b
statistic GptpAndTasShowcase.tsnDevice4.eth[0].phyLayer.inboundEmitter incomingPacketLengths:histogram
field count 4223
field mean 581.8839687426
field stddev 35.951132501747
field min 576
field max 816
field sum 2457296
field sqrsum 1435318016
attr interpolationmode none
attr recordingmode histogram
attr source "packetLength(merge(packetPushedIn, packetPulledIn))"
attr title "incoming packet lengths"
attr unit b
bin	-inf	0
bin	515	0
bin	520	0
bin	525	0
bin	530	0
bin	535	0
bin	540	0
bin	545	0
bin	550	0
bin	555	0
bin	560	0
bin	565	0
bin	570	0
bin	575	4096
bin	580	0
bin	585	0
bin	590	0
bin	595	0
bin	600	0
bin	605	0
bin	610	0
bin	615	0
bin	620	0
bin	625	0
bin	630	0
bin	635	0
bin	640	32
bin	645	0
bin	650	0
bin	655	0
bin	660	0
bin	665	0
bin	670	0
bin	675	0
bin	680	0
bin	685	0
bin	690	0
bin	695	0
bin	700	0
bin	705	0
bin	710	0
bin	715	0
bin	720	0
bin	725	0
bin	730	0
bin	735	0
bin	740	0
bin	745	0
bin	750	0
bin	755	0
bin	760	0
bin	765	0
bin	770	0
bin	775	0
bin	780	0
bin	785	0
bin	790	0
bin	795	0
bin	800	0
bin	805	0
bin	810	0
bin	815	95
bin	820	0
bin	825	0
bin	830	0
bin	835	0
bin	840	0
bin	845	0
bin	850	0
bin	855	0
bin	860	0
bin	865	0
bin	870	0
bin	875	0
bin	880	0
scalar GptpAndTasShowcase.tsnDevice4.eth[0].phyLayer.inboundEmitter flowIncomingPacketLengths:sum 0
attr interpolationmode none
attr recordingmode sum
attr source "packetLength(demuxFlow(merge(packetPushedIn, packetPulledIn)))"
attr title "flow specific incoming packet lengths, sum"
attr unit b
statistic GptpAndTasShowcase.tsnDevice4.eth[0].phyLayer.inboundEmitter flowIncomingPacketLengths:histogram
field count 0
field mean -nan
field stddev nan
field min nan
field max nan
field sum 0
field sqrsum 0
attr interpolationmode none
attr recordingmode histogram
attr source "packetLength(demuxFlow(merge(packetPushedIn, packetPulledIn)))"
attr title "flow specific incoming packet lengths"
attr unit b
bin	-inf	0
bin	0	0
bin	1	0
statistic GptpAndTasShowcase.tsnDevice4.eth[0].phyLayer.receiver receptionTime:histogram
field count 4223
field mean 5.8188396874263e-06
field stddev 3.5951132501145e-07
field min 5.76e-06
field max 8.16e-06
field sum 0.024572960000001
field sqrsum 1.435318016e-07
attr interpolationmode none
attr recordingmode histogram
attr source packetDuration(receptionEnded)
attr title "reception time"
attr unit s
bin	-inf	0
bin	5.15e-06	0
bin	5.2e-06	0
bin	5.25e-06	0
bin	5.3e-06	0
bin	5.35e-06	0
bin	5.4e-06	0
bin	5.45e-06	0
bin	5.5e-06	0
bin	5.55e-06	0
bin	5.6e-06	0
bin	5.65e-06	0
bin	5.7e-06	0
bin	5.75e-06	4096
bin	5.8e-06	0
bin	5.85e-06	0
bin	5.9e-06	0
bin	5.95e-06	0
bin	6e-06	0
bin	6.05e-06	0
bin	6.1e-06	0
bin	6.15e-06	0
bin	6.2e-06	0
bin	6.25e-06	0
bin	6.3e-06	0
bin	6.35e-06	32
bin	6.4e-06	0
bin	6.45e-06	0
bin	6.5e-06	0
bin	6.55e-06	0
bin	6.6e-06	0
bin	6.65e-06	0
bin	6.7e-06	0
bin	6.75e-06	0
bin	6.8e-06	0
bin	6.85e-06	0
bin	6.9e-06	0
bin	6.95e-06	0
bin	7e-06	0
bin	7.05e-06	0
bin	7.1e-06	0
bin	7.15e-06	0
bin	7.2e-06	0
bin	7.25e-06	0
bin	7.3e-06	0
bin	7.35e-06	0
bin	7.4e-06	0
bin	7.45e-06	0
bin	7.5e-06	0
bin	7.55e-06	0
bin	7.6e-06	0
bin	7.65e-06	0
bin	7.7e-06	0
bin	7.75e-06	0
bin	7.8e-06	0
bin	7.85e-06	0
bin	7.9e-06	0
bin	7.95e-06	0
bin	8e-06	0
bin	8.05e-06	0
bin	8.1e-06	0
bin	8.15e-06	95
bin	8.2e-06	0
bin	8.25e-06	0
bin	8.3e-06	0
bin	8.35e-06	0
bin	8.4e-06	0
bin	8.45e-06	0
bin	8.5e-06	0
bin	8.55e-06	0
bin	8.6e-06	0
bin	8.65e-06	0
bin	8.7e-06	0
bin	8.75e-06	0
bin	8.8e-06	0
statistic GptpAndTasShowcase.tsnDevice4.eth[0].phyLayer.receiver flowReceptionTime:histogram
field count 0
field mean -nan
field stddev nan
field min nan
field max nan
field sum 0
field sqrsum 0
attr interpolationmode none
attr recordingmode histogram
attr source packetDuration(demuxFlow(receptionEnded))
attr title "flow reception time"
attr unit s
bin	-inf	0
bin	0	0
bin	1	0
scalar GptpAndTasShowcase.tsnDevice4.eth[0] packetDropInterfaceDown:count 0
attr interpolationmode none
attr recordingmode count
attr source packetDropReasonIsInterfaceDown(packetDropped)
attr title "packet drops: interface down, count"
scalar GptpAndTasShowcase.tsnDevice4.eth[0] packetDropInterfaceDown:sum(packetBytes) 0
attr interpolationmode none
attr recordingmode sum(packetBytes)
attr source packetDropReasonIsInterfaceDown(packetDropped)
attr title "packet drops: interface down, sum(packetBytes)"
scalar GptpAndTasShowcase.tsnDevice4.eth[0] packetDropNoCarrier:count 0
attr interpolationmode none
attr recordingmode count
attr source packetDropReasonIsNoCarrier(packetDropped)
attr title "packet drops: no carrier, count"
scalar GptpAndTasShowcase.tsnDevice4.eth[0] packetDropNoCarrier:sum(packetBytes) 0
attr interpolationmode none
attr recordingmode sum(packetBytes)
attr source packetDropReasonIsNoCarrier(packetDropped)
attr title "packet drops: no carrier, sum(packetBytes)"
scalar GptpAndTasShowcase.tsnDevice4.ipv4.ip packetDropAddressResolutionFailed:count 0
attr interpolationmode none
attr recordingmode count
attr source packetDropReasonIsAddressResolutionFailed(packetDropped)
attr title "packet drop: address resolution failed, count"
scalar GptpAndTasShowcase.tsnDevice4.ipv4.ip packetDropAddressResolutionFailed:sum(packetBytes) 0
attr interpolationmode none
attr recordingmode sum(packetBytes)
attr source packetDropReasonIsAddressResolutionFailed(packetDropped)
attr title "packet drop: address resolution failed, sum(packetBytes)"
scalar GptpAndTasShowcase.tsnDevice4.ipv4.ip packetDropHopLimitReached:count 0
attr interpolationmode none
attr recordingmode count
attr source packetDropReasonIsHopLimitReached(packetDropped)
attr title "packet drop: hop limit reached, count"
scalar GptpAndTasShowcase.tsnDevice4.ipv4.ip packetDropHopLimitReached:sum(packetBytes) 0
attr interpolationmode none
attr recordingmode sum(packetBytes)
attr source packetDropReasonIsHopLimitReached(packetDropped)
attr title "packet drop: hop limit reached, sum(packetBytes)"
scalar GptpAndTasShowcase.tsnDevice4.ipv4.ip packetDropForwardingDisabled:count 0
attr interpolationmode none
attr recordingmode count
attr source packetDropReasonIsForwardingDisabled(packetDropped)
attr title "packet drop: forwarding disabled, count"
scalar GptpAndTasShowcase.tsnDevice4.ipv4.ip packetDropForwardingDisabled:sum(packetBytes) 0
attr interpolationmode none
attr recordingmode sum(packetBytes)
attr source packetDropReasonIsForwardingDisabled(packetDropped)
attr title "packet drop: forwarding disabled, sum(packetBytes)"
scalar GptpAndTasShowcase.tsnDevice4.ipv4.ip packetDropNoInterfaceFound:count 0
attr interpolationmode none
attr recordingmode count
attr source packetDropReasonIsNoInterfaceFound(packetDropped)
attr title "packet drop: no interface found, count"
scalar GptpAndTasShowcase.tsnDevice4.ipv4.ip packetDropNoInterfaceFound:sum(packetBytes) 0
attr interpolationmode none
attr recordingmode sum(packetBytes)
attr source packetDropReasonIsNoInterfaceFound(packetDropped)
attr title "packet drop: no interface found, sum(packetBytes)"
scalar GptpAndTasShowcase.tsnDevice4.ipv4.ip packetDropNoRouteFound:count 0
attr interpolationmode none
attr recordingmode count
attr source packetDropReasonIsNoRouteFound(packetDropped)
attr title "packet drop: no route found, count"
scalar GptpAndTasShowcase.tsnDevice4.ipv4.ip packetDropNoRouteFound:sum(packetBytes) 0
attr interpolationmode none
attr recordingmode sum(packetBytes)
attr source packetDropReasonIsNoRouteFound(packetDropped)
attr title "packet drop: no route found, sum(packetBytes)"
scalar GptpAndTasShowcase.tsnDevice4.ipv4.ip packetDropUndefined:count 0
attr interpolationmode none
attr recordingmode count
attr source packetDropReasonIsUndefined(packetDropped)
attr title "packet drop: undefined, count"
scalar GptpAndTasShowcase.tsnDevice4.ipv4.ip packetDropUndefined:sum(packetBytes) 0
attr interpolationmode none
attr recordingmode sum(packetBytes)
attr source packetDropReasonIsUndefined(packetDropped)
attr title "packet drop: undefined, sum(packetBytes)"
scalar GptpAndTasShowcase.tsnDevice4.udp packetReceived:count 4001
attr interpolationmode none
attr recordingmode count
attr source packetReceived
attr title "packets received, count"
scalar GptpAndTasShowcase.tsnDevice4.udp packetReceived:sum(packetBytes) 72018
attr interpolationmode none
attr recordingmode sum(packetBytes)
attr source packetReceived
attr title "packets received, sum(packetBytes)"
scalar GptpAndTasShowcase.tsnDevice4.udp packetSent:count 0
attr interpolationmode none
attr recordingmode count
attr source packetSent
attr title "packets sent, count"
scalar GptpAndTasShowcase.tsnDevice4.udp packetSent:sum(packetBytes) 0
attr interpolationmode none
attr recordingmode sum(packetBytes)
attr source packetSent
attr title "packets sent, sum(packetBytes)"
scalar GptpAndTasShowcase.tsnDevice4.udp passedUpPk:count 4001
attr interpolationmode none
attr recordingmode count
attr source packetSentToUpper
attr title "packets passed up, count"
scalar GptpAndTasShowcase.tsnDevice4.udp droppedPkWrongPort:count 0
attr interpolationmode none
attr recordingmode count
attr source packetDropReasonIsNoPortFound(packetDropped)
attr title "packets dropped (wrong port), count"
scalar GptpAndTasShowcase.tsnDevice4.udp droppedPkBadChecksum:count 0
attr interpolationmode none
attr recordingmode count
attr source packetDropReasonIsIncorrectlyReceived(packetDropped)
attr title "packets dropped (checksum error), count"
scalar GptpAndTasShowcase.tsnDevice4.app[0].sink packets:count 4001
attr recordingmode count
attr source packetPushed
attr title "packets, count"
attr unit pk
scalar GptpAndTasShowcase.tsnDevice4.app[0].sink packetLengths:sum 320080
attr interpolationmode none
attr recordingmode sum
attr source packetLength(packetPushed)
attr title "packet lengths, sum"
attr unit b
statistic GptpAndTasShowcase.tsnDevice4.app[0].sink packetLengths:histogram
field count 4001
field mean 80
field stddev 0
field min 80
field max 80
field sum 320080
field sqrsum 25606400
attr interpolationmode none
attr recordingmode histogram
attr source packetLength(packetPushed)
attr title "packet lengths"
attr unit b
bin	-inf	0
bin	79	0
bin	80	4001
bin	81	0
statistic GptpAndTasShowcase.tsnDevice4.app[0].sink meanBitLifeTimePerPacket:histogram
field count 4000
field mean 2.3239999999998e-05
field stddev 0
field min 2.324e-05
field max 2.324e-05
field sum 0.092959999999994
field sqrsum 2.1603903999999e-06
attr interpolationmode none
attr recordingmode histogram
attr source weightedMeanPerGroup(groupRegionsPerPacket(lifeTimePerRegion(packetPushed)))
attr title "mean bit life time per packet"
attr unit s
bin	-inf	0
bin	0	4000
bin	0.01	0
bin	0.02	0
bin	0.03	0
bin	0.04	0
bin	0.05	0
bin	0.06	0
bin	0.07	0
bin	0.08	0
bin	0.09	0
bin	0.1	0
bin	0.11	0
bin	0.12	0
bin	0.13	0
bin	0.14	0
bin	0.15	0
bin	0.16	0
bin	0.17	0
bin	0.18	0
bin	0.19	0
bin	0.2	0
bin	0.21	0
bin	0.22	0
bin	0.23	0
bin	0.24	0
bin	0.25	0
bin	0.26	0
bin	0.27	0
bin	0.28	0
bin	0.29	0
bin	0.3	0
bin	0.31	0
bin	0.32	0
bin	0.33	0
bin	0.34	0
bin	0.35	0
bin	0.36	0
bin	0.37	0
bin	0.38	0
bin	0.39	0
bin	0.4	0
bin	0.41	0
bin	0.42	0
bin	0.43	0
bin	0.44	0
bin	0.45	0
bin	0.46	0
bin	0.47	0
bin	0.48	0
bin	0.49	0
bin	0.5	0
bin	0.51	0
statistic GptpAndTasShowcase.tsnDevice4.app[0].sink packetJitter:histogram
field count 4000
field mean 5.81e-09
field stddev 3.6745666411157e-07
field min 0
field max 2.324e-05
field sum 2.324e-05
field sqrsum 5.400976e-10
attr interpolationmode none
attr recordingmode histogram
attr source jitter(weightedMeanPerGroup(groupRegionsPerPacket(lifeTimePerRegion(packetPushed))))
attr title "packet jitter"
attr unit s
bin	-inf	0
bin	0	3999
bin	5e-07	0
bin	1e-06	0
bin	1.5e-06	0
bin	2e-06	0
bin	2.5e-06	0
bin	3e-06	0
bin	3.5e-06	0
bin	4e-06	0
bin	4.5e-06	0
bin	5e-06	0
bin	5.5e-06	0
bin	6e-06	0
bin	6.5e-06	0
bin	7e-06	0
bin	7.5e-06	0
bin	8e-06	0
bin	8.5e-06	0
bin	9e-06	0
bin	9.5e-06	0
bin	1e-05	0
bin	1.05e-05	0
bin	1.1e-05	0
bin	1.15e-05	0
bin	1.2e-05	0
bin	1.25e-05	0
bin	1.3e-05	0
bin	1.35e-05	0
bin	1.4e-05	0
bin	1.45e-05	0
bin	1.5e-05	0
bin	1.55e-05	0
bin	1.6e-05	0
bin	1.65e-05	0
bin	1.7e-05	0
bin	1.75e-05	0
bin	1.8e-05	0
bin	1.85e-05	0
bin	1.9e-05	0
bin	1.95e-05	0
bin	2e-05	0
bin	2.05e-05	0
bin	2.1e-05	0
bin	2.15e-05	0
bin	2.2e-05	0
bin	2.25e-05	0
bin	2.3e-05	1
bin	2.35e-05	0
bin	2.4e-05	0
bin	2.45e-05	0
bin	2.5e-05	0
bin	2.55e-05	0
bin	2.6e-05	0
bin	2.65e-05	0
bin	2.7e-05	0
bin	2.75e-05	0
bin	2.8e-05	0
bin	2.85e-05	0
bin	2.9e-05	0
bin	2.95e-05	0
statistic GptpAndTasShowcase.tsnDevice4.app[0].sink packetDelayDifferenceToMean:histogram
field count 4000
field mean 8.9550864282566e-20
field stddev 6.4458655490269e-19
field min -1.5856456772601e-18
field max 6.505213034913e-19
field sum 3.5820345713027e-16
field sqrsum 1.6936292443935e-33
attr interpolationmode none
attr recordingmode histogram
attr source differenceToMean(weightedMeanPerGroup(groupRegionsPerPacket(lifeTimePerRegion(packetPushed))))
attr title "packet delay difference to mean"
attr unit s
bin	-inf	0
bin	-1.604e-18	14
bin	-1.572e-18	27
bin	-1.54e-18	25
bin	-1.508e-18	29
bin	-1.476e-18	25
bin	-1.444e-18	27
bin	-1.412e-18	25
bin	-1.38e-18	27
bin	-1.348e-18	24
bin	-1.316e-18	26
bin	-1.284e-18	23
bin	-1.252e-18	23
bin	-1.22e-18	25
bin	-1.188e-18	22
bin	-1.156e-18	25
bin	-1.124e-18	22
bin	-1.092e-18	24
bin	-1.06e-18	21
bin	-1.028e-18	23
bin	-9.96e-19	21
bin	-9.64e-19	20
bin	-9.32e-19	23
bin	-9e-19	20
bin	-8.68e-19	22
bin	-8.36e-19	19
bin	-8.04e-19	22
bin	-7.72e-19	19
bin	-7.4e-19	21
bin	-7.08e-19	18
bin	-6.76e-19	19
bin	-6.44e-19	20
bin	-6.12e-19	18
bin	-5.8e-19	19
bin	-5.48e-19	18
bin	-5.16e-19	19
bin	-4.84e-19	18
bin	-4.52e-19	18
bin	-4.2e-19	17
bin	-3.88e-19	17
bin	-3.56e-19	18
bin	-3.24e-19	16
bin	-2.92e-19	18
bin	-2.6e-19	16
bin	-2.28e-19	18
bin	-1.96e-19	15
bin	-1.64e-19	17
bin	-1.32e-19	15
bin	-1e-19	239
bin	-6.8e-20	88
bin	-3.6e-20	48
bin	-4e-21	80
bin	2.8e-20	32
bin	6e-20	35
bin	9.2e-20	36
bin	1.24e-19	40
bin	1.56e-19	40
bin	1.88e-19	42
bin	2.2e-19	51
bin	2.52e-19	49
bin	2.84e-19	61
bin	3.16e-19	65
bin	3.48e-19	78
bin	3.8e-19	80
bin	4.12e-19	103
bin	4.44e-19	112
bin	4.76e-19	136
bin	5.08e-19	190
bin	5.4e-19	245
bin	5.72e-19	354
bin	6.04e-19	478
bin	6.36e-19	340
bin	6.68e-19	0
statistic GptpAndTasShowcase.tsnDevice4.app[0].sink packetDelayVariation:histogram
field count 4000
field mean 9.7027932897112e-13
field stddev 1.8146000080338e-12
field min 0
field max 6.3165370217764e-12
field sum 3.8811173158845e-09
field sqrsum 1.6933567888351e-20
attr recordingmode histogram
attr source stddev(weightedMeanPerGroup(groupRegionsPerPacket(lifeTimePerRegion(packetPushed))))
attr title "packet delay variation"
attr unit s
bin	-inf	0
bin	0	2885
bin	1e-13	0
bin	2e-13	2
bin	3e-13	3
bin	4e-13	8
bin	5e-13	6
bin	6e-13	9
bin	7e-13	5
bin	8e-13	7
bin	9e-13	5
bin	1e-12	10
bin	1.1e-12	7
bin	1.2e-12	11
bin	1.3e-12	12
bin	1.4e-12	50
bin	1.5e-12	41
bin	1.6e-12	35
bin	1.7e-12	39
bin	1.8e-12	47
bin	1.9e-12	50
bin	2e-12	30
bin	2.1e-12	25
bin	2.2e-12	26
bin	2.3e-12	37
bin	2.4e-12	9
bin	2.5e-12	8
bin	2.6e-12	7
bin	2.7e-12	10
bin	2.8e-12	9
bin	2.9e-12	10
bin	3e-12	11
bin	3.1e-12	9
bin	3.2e-12	11
bin	3.3e-12	12
bin	3.4e-12	11
bin	3.5e-12	13
bin	3.6e-12	12
bin	3.7e-12	13
bin	3.8e-12	13
bin	3.9e-12	14
bin	4e-12	13
bin	4.1e-12	15
bin	4.2e-12	16
bin	4.3e-12	15
bin	4.4e-12	17
bin	4.5e-12	17
bin	4.6e-12	16
bin	4.7e-12	18
bin	4.8e-12	19
bin	4.9e-12	20
bin	5e-12	20
bin	5.1e-12	19
bin	5.2e-12	21
bin	5.3e-12	21
bin	5.4e-12	22
bin	5.5e-12	22
bin	5.6e-12	25
bin	5.7e-12	25
bin	5.8e-12	24
bin	5.9e-12	25
bin	6e-12	26
bin	6.1e-12	28
bin	6.2e-12	28
bin	6.3e-12	6
bin	6.4e-12	0
scalar GptpAndTasShowcase.tsnDevice4.app[0].sink droppedPackets:count 4001
attr recordingmode count
attr source packetDropped
attr title "dropped packets, count"
attr unit pk
scalar GptpAndTasShowcase.tsnDevice4.app[0].sink droppedPacketLengths:sum 320080
attr interpolationmode none
attr recordingmode sum
attr source packetLength(packetDropped)
attr title "dropped packet lengths, sum"
attr unit b
statistic GptpAndTasShowcase.tsnDevice4.app[0].sink droppedPacketLengths:histogram
field count 4001
field mean 80
field stddev 0
field min 80
field max 80
field sum 320080
field sqrsum 25606400
attr interpolationmode none
attr recordingmode histogram
attr source packetLength(packetDropped)
attr title "dropped packet lengths"
attr unit b
bin	-inf	0
bin	79	0
bin	80	4001
bin	81	0
scalar GptpAndTasShowcase.tsnDevice4.app[0].io "packets sent" 0
scalar GptpAndTasShowcase.tsnDevice4.app[0].io "packets received" 4001
scalar GptpAndTasShowcase.tsnDevice4.app[0].io packetReceived:count 4001
attr interpolationmode none
attr recordingmode count
attr source packetReceived
attr title "packets received, count"
scalar GptpAndTasShowcase.tsnDevice4.app[0].io packetReceived:sum(packetBytes) 40010
attr interpolationmode none
attr recordingmode sum(packetBytes)
attr source packetReceived
attr title "packets received, sum(packetBytes)"
scalar GptpAndTasShowcase.tsnDevice4.app[0].io packetSent:count 0
attr interpolationmode none
attr recordingmode count
attr source packetSent
attr title "packets sent, count"
scalar GptpAndTasShowcase.tsnDevice4.app[0].io packetSent:sum(packetBytes) 0
attr interpolationmode none
attr recordingmode sum(packetBytes)
attr source packetSent
attr title "packets sent, sum(packetBytes)"
scalar GptpAndTasShowcase.tsnDevice4.gptp.multiplexer packets:count 0
attr recordingmode count
attr source "merge(packetPushed, packetPulled)"
attr title "packets, count"
attr unit pk
scalar GptpAndTasShowcase.tsnDevice4.gptp.multiplexer packetLengths:sum 0
attr interpolationmode none
attr recordingmode sum
attr source "packetLength(merge(packetPushed, packetPulled))"
attr title "packet lengths, sum"
attr unit b
statistic GptpAndTasShowcase.tsnDevice4.gptp.multiplexer packetLengths:histogram
field count 0
field mean -nan
field stddev nan
field min nan
field max nan
field sum 0
field sqrsum 0
attr interpolationmode none
attr recordingmode histogram
attr source "packetLength(merge(packetPushed, packetPulled))"
attr title "packet lengths"
attr unit b
bin	-inf	0
bin	0	0
bin	1	0
scalar GptpAndTasShowcase.tsnDevice4.gptp.classifier packets:count 222
attr recordingmode count
attr source packetPushed
attr title "packets, count"
attr unit pk
scalar GptpAndTasShowcase.tsnDevice4.gptp.classifier packetLengths:sum 106544
attr interpolationmode none
attr recordingmode sum
attr source packetLength(packetPushed)
attr title "packet lengths, sum"
attr unit b
statistic GptpAndTasShowcase.tsnDevice4.gptp.classifier packetLengths:histogram
field count 222
field mean 479.92792792793
field stddev 112.99875558613
field min 368
field max 608
field sum 106544
field sqrsum 53955328
attr interpolationmode none
attr recordingmode histogram
attr source packetLength(packetPushed)
attr title "packet lengths"
attr unit b
bin	-inf	0
bin	305	0
bin	310	0
bin	315	0
bin	320	0
bin	325	0
bin	330	0
bin	335	0
bin	340	0
bin	345	0
bin	350	0
bin	355	0
bin	360	0
bin	365	95
bin	370	0
bin	375	0
bin	380	0
bin	385	0
bin	390	0
bin	395	0
bin	400	0
bin	405	0
bin	410	0
bin	415	0
bin	420	0
bin	425	0
bin	430	32
bin	435	0
bin	440	0
bin	445	0
bin	450	0
bin	455	0
bin	460	0
bin	465	0
bin	470	0
bin	475	0
bin	480	0
bin	485	0
bin	490	0
bin	495	0
bin	500	0
bin	505	0
bin	510	0
bin	515	0
bin	520	0
bin	525	0
bin	530	0
bin	535	0
bin	540	0
bin	545	0
bin	550	0
bin	555	0
bin	560	0
bin	565	0
bin	570	0
bin	575	0
bin	580	0
bin	585	0
bin	590	0
bin	595	0
bin	600	0
bin	605	95
bin	610	0
bin	615	0
bin	620	0
bin	625	0
bin	630	0
bin	635	0
bin	640	0
bin	645	0
bin	650	0
bin	655	0
bin	660	0
bin	665	0
bin	670	0

