version 3
run Throughput2-0-20230426-16:25:37-213702
attr configname Throughput2
attr datetime 20230426-16:25:37
attr datetimef 20230426-162537
attr description "3 hosts to AP"
attr experiment Throughput2
attr inifile omnetpp.ini
attr iterationvars ""
attr iterationvarsd ""
attr iterationvarsf ""
attr measurement ""
attr network Throughput
attr processid 213702
attr repetition 0
attr replication #0
attr resultdir results
attr runnumber 0
attr seedset 0
config **.param-recording false
config **.vector-recording false
config image-path /home/levy/workspace/inet/images
config output-scalar-file results/omnetpp.ini-Throughput2-#0.sca
config sim-time-limit 10s
config sim-time-limit 10s
config description "3 hosts to AP"
config Throughput.numCli 3
config network Throughput
config **.constraintAreaMinX 0m
config **.constraintAreaMinY 0m
config **.constraintAreaMinZ 0m
config **.constraintAreaMaxX 400m
config **.constraintAreaMaxY 400m
config **.constraintAreaMaxZ 0m
config **.ap.wlan.address "\"10:00:00:00:00:00\""
config **.mgmt.accessPointAddress "\"10:00:00:00:00:00\""
config **.wlan*.bitrate 1Mbps
config **.radio.transmitter.power 20mW
config **.radio.receiver.sensitivity -85dBm
config **.radio.receiver.snirThreshold 4dB
config **.cli.reqLength 1000B
config **.cli.respLength 0B
config **.cli.destAddress "\"20:00:00:00:00:00\""
config **.cli.sendInterval 0.5ms

scalar Throughput.radioMedium.propagation "Arrival computation count" 6858
scalar Throughput.radioMedium "transmission count" 2286
scalar Throughput.radioMedium "signal send count" 6858
scalar Throughput.radioMedium "reception computation count" 6858
scalar Throughput.radioMedium "interference computation count" 22469
scalar Throughput.radioMedium "reception decision computation count" 6595
scalar Throughput.radioMedium "listening decision computation count" 9148
scalar Throughput.radioMedium "reception cache hit" 85.486942904304
attr unit %
scalar Throughput.radioMedium "interference cache hit" 66.666666666667
attr unit %
scalar Throughput.radioMedium "noise cache hit" 0
attr unit %
scalar Throughput.radioMedium "snir cache hit" 50
attr unit %
scalar Throughput.radioMedium "reception decision cache hit" 50
attr unit %
scalar Throughput.radioMedium "reception result cache hit" 0
attr unit %
scalar Throughput.cliHost[0].cli packetReceived:count 0
attr interpolationmode none
attr recordingmode count
attr source packetReceived
attr title "packets received, count"
scalar Throughput.cliHost[0].cli packetReceived:sum(packetBytes) 0
attr interpolationmode none
attr recordingmode sum(packetBytes)
attr source packetReceived
attr title "packets received, sum(packetBytes)"
statistic Throughput.cliHost[0].cli endToEndDelay:histogram
field count 0
field mean -nan
field stddev nan
field min nan
field max nan
field sum 0
field sqrsum 0
attr interpolationmode none
attr recordingmode histogram
attr source dataAge(packetReceived)
attr title "end-to-end delay"
attr unit s
bin	-inf	0
bin	0	0
bin	1	0
scalar Throughput.cliHost[0].cli packetSent:count 20000
attr interpolationmode none
attr recordingmode count
attr source packetSent
attr title "packets sent, count"
scalar Throughput.cliHost[0].cli packetSent:sum(packetBytes) 20000000
attr interpolationmode none
attr recordingmode sum(packetBytes)
attr source packetSent
attr title "packets sent, sum(packetBytes)"
scalar Throughput.cliHost[0].wlan.mac.dcf.channelAccess.pendingQueue queueLength:last 100
attr autoWarmupFilter false
attr interpolationmode sample-hold
attr recordingmode last
attr source "warmup(atomic(constant0(packetPushEnded) + count(packetPushStarted) - count(packetPulled) - count(packetRemoved) - count(packetDropped)))"
attr title "queue length, last"
attr unit pk
scalar Throughput.cliHost[0].wlan.mac.dcf.channelAccess.pendingQueue queueLength:max 100
attr autoWarmupFilter false
attr interpolationmode sample-hold
attr recordingmode max
attr source "warmup(atomic(constant0(packetPushEnded) + count(packetPushStarted) - count(packetPulled) - count(packetRemoved) - count(packetDropped)))"
attr title "queue length, max"
attr unit pk
scalar Throughput.cliHost[0].wlan.mac.dcf.channelAccess.pendingQueue queueLength:timeavg 99.733188902182
attr autoWarmupFilter false
attr interpolationmode sample-hold
attr recordingmode timeavg
attr source "warmup(atomic(constant0(packetPushEnded) + count(packetPushStarted) - count(packetPulled) - count(packetRemoved) - count(packetDropped)))"
attr title "queue length, timeavg"
attr unit pk
scalar Throughput.cliHost[0].wlan.mac.dcf.channelAccess.pendingQueue queueBitLength:last 824800
attr autoWarmupFilter false
attr interpolationmode sample-hold
attr recordingmode last
attr source "warmup(atomic(constant0(packetPushEnded) + sum(packetLength(packetPushStarted)) - sum(packetLength(packetPulled)) - sum(packetLength(packetRemoved)) - sum(packetLength(packetDropped))))"
attr title "queue bit length, last"
attr unit b
scalar Throughput.cliHost[0].wlan.mac.dcf.channelAccess.pendingQueue queueBitLength:max 824800
attr autoWarmupFilter false
attr interpolationmode sample-hold
attr recordingmode max
attr source "warmup(atomic(constant0(packetPushEnded) + sum(packetLength(packetPushStarted)) - sum(packetLength(packetPulled)) - sum(packetLength(packetRemoved)) - sum(packetLength(packetDropped))))"
attr title "queue bit length, max"
attr unit b
scalar Throughput.cliHost[0].wlan.mac.dcf.channelAccess.pendingQueue queueBitLength:timeavg 822599.34206578
attr autoWarmupFilter false
attr interpolationmode sample-hold
attr recordingmode timeavg
attr source "warmup(atomic(constant0(packetPushEnded) + sum(packetLength(packetPushStarted)) - sum(packetLength(packetPulled)) - sum(packetLength(packetRemoved)) - sum(packetLength(packetDropped))))"
attr title "queue bit length, timeavg"
attr unit b
statistic Throughput.cliHost[0].wlan.mac.dcf.channelAccess.pendingQueue queueingTime:histogram
field count 388
field mean 2.2104072742983
field stddev 0.72621474316399
field min 0
field max 2.74714654106
field sum 857.63802242772
field sqrsum 2099.828422673
attr interpolationmode none
attr recordingmode histogram
attr source queueingTime(packetPulled)
attr title "queueing times"
attr unit s
bin	-inf	0
bin	0	3
bin	0.05	3
bin	0.1	2
bin	0.15	5
bin	0.2	1
bin	0.25	2
bin	0.3	1
bin	0.35	3
bin	0.4	2
bin	0.45	3
bin	0.5	1
bin	0.55	2
bin	0.6	1
bin	0.65	3
bin	0.7	2
bin	0.75	2
bin	0.8	1
bin	0.85	4
bin	0.9	3
bin	0.95	1
bin	1	1
bin	1.05	2
bin	1.1	2
bin	1.15	1
bin	1.2	3
bin	1.25	2
bin	1.3	2
bin	1.35	3
bin	1.4	3
bin	1.45	2
bin	1.5	2
bin	1.55	2
bin	1.6	0
bin	1.65	3
bin	1.7	1
bin	1.75	1
bin	1.8	3
bin	1.85	1
bin	1.9	3
bin	1.95	1
bin	2	4
bin	2.05	3
bin	2.1	2
bin	2.15	2
bin	2.2	1
bin	2.25	0
bin	2.3	3
bin	2.35	2
bin	2.4	20
bin	2.45	36
bin	2.5	36
bin	2.55	70
bin	2.6	74
bin	2.65	36
bin	2.7	16
bin	2.75	0
bin	2.8	0
bin	2.85	0
bin	2.9	0
bin	2.95	0
bin	3	0
bin	3.05	0
bin	3.1	0
bin	3.15	0
bin	3.2	0
bin	3.25	0
bin	3.3	0
bin	3.35	0
bin	3.4	0
scalar Throughput.cliHost[0].wlan.mac.dcf.channelAccess.pendingQueue outgoingPackets:count 388
attr recordingmode count
attr source packetPulled
attr title "outgoing packets, count"
attr unit pk
scalar Throughput.cliHost[0].wlan.mac.dcf.channelAccess.pendingQueue outgoingPacketLengths:sum 3200224
attr interpolationmode none
attr recordingmode sum
attr source packetLength(packetPulled)
attr title "outgoing packet lengths, sum"
attr unit b
statistic Throughput.cliHost[0].wlan.mac.dcf.channelAccess.pendingQueue outgoingPacketLengths:histogram
field count 388
field mean 8248
field stddev 0
field min 8248
field max 8248
field sum 3200224
field sqrsum 26395447552
attr interpolationmode none
attr recordingmode histogram
attr source packetLength(packetPulled)
attr title "outgoing packet lengths"
attr unit b
bin	-inf	0
bin	8247	0
bin	8248	388
bin	8249	0
statistic Throughput.cliHost[0].wlan.mac.dcf.channelAccess.pendingQueue flowQueueingTime:histogram
field count 0
field mean -nan
field stddev nan
field min nan
field max nan
field sum 0
field sqrsum 0
attr interpolationmode none
attr recordingmode histogram
attr source queueingTime(demuxFlow(packetPulled))
attr title "flow queueing times"
attr unit s
bin	-inf	0
bin	0	0
bin	1	0
scalar Throughput.cliHost[0].wlan.mac.dcf.channelAccess.pendingQueue incomingPackets:count 20000
attr recordingmode count
attr source packetPushStarted
attr title "incoming packets, count"
attr unit pk
scalar Throughput.cliHost[0].wlan.mac.dcf.channelAccess.pendingQueue incomingPacketLengths:sum 164960000
attr interpolationmode none
attr recordingmode sum
attr source packetLength(packetPushStarted)
attr title "incoming packet lengths, sum"
attr unit b
statistic Throughput.cliHost[0].wlan.mac.dcf.channelAccess.pendingQueue incomingPacketLengths:histogram
field count 20000
field mean 8248
field stddev 0
field min 8248
field max 8248
field sum 164960000
field sqrsum 1360590080000
attr interpolationmode none
attr recordingmode histogram
attr source packetLength(packetPushStarted)
attr title "incoming packet lengths"
attr unit b
bin	-inf	0
bin	8247	0
bin	8248	20000
bin	8249	0
scalar Throughput.cliHost[0].wlan.mac.dcf.channelAccess.pendingQueue droppedPacketsQueueOverflow:count 19512
attr interpolationmode none
attr recordingmode count
attr source packetDropReasonIsQueueOverflow(packetDropped)
attr title "dropped packets: queue overflow, count"
attr unit pk
scalar Throughput.cliHost[0].wlan.mac.dcf.channelAccess.pendingQueue droppedPacketLengthsQueueOverflow:sum 160934976
attr interpolationmode none
attr recordingmode sum
attr source packetLength(packetDropReasonIsQueueOverflow(packetDropped))
attr title "dropped packet lengths: queue overflow, sum"
attr unit b
statistic Throughput.cliHost[0].wlan.mac.dcf.channelAccess.inProgressFrames queueingTime:histogram
field count 387
field mean 0.036353557423677
field stddev 0.017021786027794
field min 0.01755913074
field max 0.107086616853
field sum 14.068826722963
field sqrsum 0.62329200319333
attr interpolationmode none
attr recordingmode histogram
attr source queueingTime(packetDequeued)
attr title "queueing times"
bin	-inf	0
bin	0	0
bin	0.002	0
bin	0.004	0
bin	0.006	0
bin	0.008	0
bin	0.01	0
bin	0.012	0
bin	0.014	0
bin	0.016	92
bin	0.018	1
bin	0.02	0
bin	0.022	0
bin	0.024	0
bin	0.026	82
bin	0.028	0
bin	0.03	0
bin	0.032	0
bin	0.034	71
bin	0.036	0
bin	0.038	0
bin	0.04	0
bin	0.042	0
bin	0.044	61
bin	0.046	0
bin	0.048	0
bin	0.05	0
bin	0.052	36
bin	0.054	1
bin	0.056	0
bin	0.058	0
bin	0.06	3
bin	0.062	21
bin	0.064	0
bin	0.066	0
bin	0.068	0
bin	0.07	8
bin	0.072	0
bin	0.074	0
bin	0.076	0
bin	0.078	2
bin	0.08	4
bin	0.082	0
bin	0.084	0
bin	0.086	0
bin	0.088	2
bin	0.09	0
bin	0.092	0
bin	0.094	0
bin	0.096	0
bin	0.098	1
bin	0.1	0
bin	0.102	0
bin	0.104	0
bin	0.106	2
bin	0.108	0
bin	0.11	0
bin	0.112	0
bin	0.114	0
bin	0.116	0
bin	0.118	0
bin	0.12	0
bin	0.122	0
bin	0.124	0
bin	0.126	0
bin	0.128	0
bin	0.13	0
scalar Throughput.cliHost[0].wlan.mac.dcf.channelAccess.inProgressFrames queueLength:max 2
attr autoWarmupFilter false
attr interpolationmode sample-hold
attr recordingmode max
attr source "warmup(count(packetEnqueued) - count(packetDequeued))"
attr title "queue length, max"
scalar Throughput.cliHost[0].wlan.mac.dcf.channelAccess.inProgressFrames queueLength:timeavg 1.4096158426266
attr autoWarmupFilter false
attr interpolationmode sample-hold
attr recordingmode timeavg
attr source "warmup(count(packetEnqueued) - count(packetDequeued))"
attr title "queue length, timeavg"
scalar Throughput.cliHost[0].wlan.mac.dcf.channelAccess.contention channelAccessGranted:count 409
attr recordingmode count
attr title "channel access granted, count"
scalar Throughput.cliHost[0].wlan.mac.dcf.channelAccess.contention stateChanged:count 8902
attr enum IDLE,DEFER,IFS_AND_BACKOFF
attr interpolationmode none
attr recordingmode count
attr title "contention state changed, count"
attr type enum
scalar Throughput.cliHost[0].wlan.mac.dcf.channelAccess channelOwnershipChanged:count 818
attr interpolationmode sample-hold
attr recordingmode count
attr title "channel ownership, count"
scalar Throughput.cliHost[0].wlan.mac.dcf.originatorMacDataService packetAggregated:count 0
attr recordingmode count
attr title "packets aggregated, count"
scalar Throughput.cliHost[0].wlan.mac.dcf.originatorMacDataService packetFragmented:count 0
attr recordingmode count
attr title "packets fragmented, count"
scalar Throughput.cliHost[0].wlan.mac.dcf.recipientMacDataService packetDeaggregated:count 0
attr recordingmode count
attr title "packets deaggregated, count"
scalar Throughput.cliHost[0].wlan.mac.dcf.recipientMacDataService packetDefragmented:count 0
attr recordingmode count
attr title "packets defragmented, count"
scalar Throughput.cliHost[0].wlan.mac.dcf.recipientMacDataService packetDropDuplicateDetected:count 0
attr interpolationmode none
attr recordingmode count
attr source packetDropReasonIsDuplicateDetected(packetDropped)
attr title "packet drops: duplicate detected, count"
scalar Throughput.cliHost[0].wlan.mac.dcf.recipientMacDataService packetDropDuplicateDetected:sum(packetBytes) 0
attr interpolationmode none
attr recordingmode sum(packetBytes)
attr source packetDropReasonIsDuplicateDetected(packetDropped)
attr title "packet drops: duplicate detected, sum(packetBytes)"
scalar Throughput.cliHost[0].wlan.mac.dcf.recoveryProcedure retryLimitReached:count 0
attr recordingmode count
attr title "retry limit reached, count"
scalar Throughput.cliHost[0].wlan.mac.dcf frameSequenceFinished:count 409
attr recordingmode count
attr title "finished frame sequences, count"
statistic Throughput.cliHost[0].wlan.mac.dcf frameSequenceDuration:histogram
field count 409
field mean 0.008749586303643
field stddev 2.0908536195074e-05
field min 0.008662
field max 0.00875456537
field sum 3.57858079819
field sqrsum 0.031311279902412
attr recordingmode histogram
attr source frameSequenceDuration(frameSequenceFinished)
attr title "frame sequence durations"
bin	-inf	0
bin	0.008638	0
bin	0.00864	0
bin	0.008642	0
bin	0.008644	0
bin	0.008646	0
bin	0.008648	0
bin	0.00865	0
bin	0.008652	0
bin	0.008654	0
bin	0.008656	0
bin	0.008658	0
bin	0.00866	22
bin	0.008662	0
bin	0.008664	0
bin	0.008666	0
bin	0.008668	0
bin	0.00867	0
bin	0.008672	0
bin	0.008674	0
bin	0.008676	0
bin	0.008678	0
bin	0.00868	0
bin	0.008682	0
bin	0.008684	0
bin	0.008686	0
bin	0.008688	0
bin	0.00869	0
bin	0.008692	0
bin	0.008694	0
bin	0.008696	0
bin	0.008698	0
bin	0.0087	0
bin	0.008702	0
bin	0.008704	0
bin	0.008706	0
bin	0.008708	0
bin	0.00871	0
bin	0.008712	0
bin	0.008714	0
bin	0.008716	0
bin	0.008718	0
bin	0.00872	0
bin	0.008722	0
bin	0.008724	0
bin	0.008726	0
bin	0.008728	0
bin	0.00873	0
bin	0.008732	0
bin	0.008734	0
bin	0.008736	0
bin	0.008738	0
bin	0.00874	0
bin	0.008742	0
bin	0.008744	0
bin	0.008746	0
bin	0.008748	0
bin	0.00875	0
bin	0.008752	0
bin	0.008754	387
bin	0.008756	0
bin	0.008758	0
bin	0.00876	0
bin	0.008762	0
bin	0.008764	0
bin	0.008766	0
bin	0.008768	0
bin	0.00877	0
bin	0.008772	0
bin	0.008774	0
bin	0.008776	0
bin	0.008778	0
statistic Throughput.cliHost[0].wlan.mac.dcf frameSequenceNumPackets:histogram
field count 409
field mean 2
field stddev 0
field min 2
field max 2
field sum 818
field sqrsum 1636
attr recordingmode histogram
attr source frameSequenceNumPackets(frameSequenceFinished)
attr title "frame sequences: number of packets"
bin	-inf	0
bin	1	0
bin	2	409
bin	3	0
scalar Throughput.cliHost[0].wlan.mac.dcf packetReceivedFromPeer:count 387
attr interpolationmode none
attr recordingmode count
attr title "packets received, count"
scalar Throughput.cliHost[0].wlan.mac.dcf packetReceivedFromPeer:sum(packetBytes) 5418
attr interpolationmode none
attr recordingmode sum(packetBytes)
attr title "packets received, sum(packetBytes)"
scalar Throughput.cliHost[0].wlan.mac.dcf packetReceivedFromPeerUnicast:count 387
attr interpolationmode none
attr recordingmode count
attr source ieee80211Unicast(packetReceivedFromPeer)
attr title "packets received: unicast, count"
scalar Throughput.cliHost[0].wlan.mac.dcf packetReceivedFromPeerUnicast:sum(packetBytes) 5418
attr interpolationmode none
attr recordingmode sum(packetBytes)
attr source ieee80211Unicast(packetReceivedFromPeer)
attr title "packets received: unicast, sum(packetBytes)"
scalar Throughput.cliHost[0].wlan.mac.dcf packetReceivedFromPeerMulticast:count 0
attr interpolationmode none
attr recordingmode count
attr source ieee80211Multicast(packetReceivedFromPeer)
attr title "packets received: multicast, count"
scalar Throughput.cliHost[0].wlan.mac.dcf packetReceivedFromPeerMulticast:sum(packetBytes) 0
attr interpolationmode none
attr recordingmode sum(packetBytes)
attr source ieee80211Multicast(packetReceivedFromPeer)
attr title "packets received: multicast, sum(packetBytes)"
scalar Throughput.cliHost[0].wlan.mac.dcf packetReceivedFromPeerBroadcast:count 0
attr interpolationmode none
attr recordingmode count
attr source ieee80211Broadcast(packetReceivedFromPeer)
attr title "packets received: broadcast, count"
scalar Throughput.cliHost[0].wlan.mac.dcf packetReceivedFromPeerBroadcast:sum(packetBytes) 0
attr interpolationmode none
attr recordingmode sum(packetBytes)
attr source ieee80211Broadcast(packetReceivedFromPeer)
attr title "packets received: broadcast, sum(packetBytes)"
scalar Throughput.cliHost[0].wlan.mac.dcf packetReceivedFromPeerWithRetry:count 0
attr interpolationmode none
attr recordingmode count
attr source ieee80211Retry(packetReceivedFromPeer)
attr title "packets received: with retry, count"
scalar Throughput.cliHost[0].wlan.mac.dcf packetReceivedFromPeerWithRetry:sum(packetBytes) 0
attr interpolationmode none
attr recordingmode sum(packetBytes)
attr source ieee80211Retry(packetReceivedFromPeer)
attr title "packets received: with retry, sum(packetBytes)"
scalar Throughput.cliHost[0].wlan.mac.dcf packetReceivedFromPeerWithoutRetry:count 387
attr interpolationmode none
attr recordingmode count
attr source ieee80211NotRetry(packetReceivedFromPeer)
attr title "packets received: without retry, count"
scalar Throughput.cliHost[0].wlan.mac.dcf packetReceivedFromPeerWithoutRetry:sum(packetBytes) 5418
attr interpolationmode none
attr recordingmode sum(packetBytes)
attr source ieee80211NotRetry(packetReceivedFromPeer)
attr title "packets received: without retry, sum(packetBytes)"
scalar Throughput.cliHost[0].wlan.mac.dcf packetSentToPeer:count 409
attr interpolationmode none
attr recordingmode count
attr title "packets sent, count"
scalar Throughput.cliHost[0].wlan.mac.dcf packetSentToPeer:sum(packetBytes) 421679
attr interpolationmode none
attr recordingmode sum(packetBytes)
attr title "packets sent, sum(packetBytes)"
scalar Throughput.cliHost[0].wlan.mac.dcf packetSentToPeerUnicast:count 409
attr interpolationmode none
attr recordingmode count
attr source ieee80211Unicast(packetSentToPeer)
attr title "packets sent: unicast, count"
scalar Throughput.cliHost[0].wlan.mac.dcf packetSentToPeerUnicast:sum(packetBytes) 421679
attr interpolationmode none
attr recordingmode sum(packetBytes)
attr source ieee80211Unicast(packetSentToPeer)
attr title "packets sent: unicast, sum(packetBytes)"
scalar Throughput.cliHost[0].wlan.mac.dcf packetSentToPeerMulticast:count 0
attr interpolationmode none
attr recordingmode count
attr source ieee80211Multicast(packetSentToPeer)
attr title "packets sent: multicast, count"
scalar Throughput.cliHost[0].wlan.mac.dcf packetSentToPeerMulticast:sum(packetBytes) 0
attr interpolationmode none
attr recordingmode sum(packetBytes)
attr source ieee80211Multicast(packetSentToPeer)
attr title "packets sent: multicast, sum(packetBytes)"
scalar Throughput.cliHost[0].wlan.mac.dcf packetSentToPeerBroadcast:count 0
attr interpolationmode none
attr recordingmode count
attr source ieee80211Broadcast(packetSentToPeer)
attr title "packets sent: broadcast , count"
scalar Throughput.cliHost[0].wlan.mac.dcf packetSentToPeerBroadcast:sum(packetBytes) 0
attr interpolationmode none
attr recordingmode sum(packetBytes)
attr source ieee80211Broadcast(packetSentToPeer)
attr title "packets sent: broadcast , sum(packetBytes)"
scalar Throughput.cliHost[0].wlan.mac.dcf packetSentToPeerWithRetry:count 22
attr interpolationmode none
attr recordingmode count
attr source ieee80211Retry(packetSentToPeer)
attr title "packets sent: with retry, count"
scalar Throughput.cliHost[0].wlan.mac.dcf packetSentToPeerWithRetry:sum(packetBytes) 22682
attr interpolationmode none
attr recordingmode sum(packetBytes)
attr source ieee80211Retry(packetSentToPeer)
attr title "packets sent: with retry, sum(packetBytes)"
scalar Throughput.cliHost[0].wlan.mac.dcf packetSentToPeerWithoutRetry:count 387
attr interpolationmode none
attr recordingmode count
attr source ieee80211NotRetry(packetSentToPeer)
attr title "packets sent: without retry, count"
scalar Throughput.cliHost[0].wlan.mac.dcf packetSentToPeerWithoutRetry:sum(packetBytes) 398997
attr interpolationmode none
attr recordingmode sum(packetBytes)
attr source ieee80211NotRetry(packetSentToPeer)
attr title "packets sent: without retry, sum(packetBytes)"
scalar Throughput.cliHost[0].wlan.mac.dcf packetDrop:count 20936
attr interpolationmode none
attr recordingmode count
attr source packetDropped
attr title "packet drops, count"
scalar Throughput.cliHost[0].wlan.mac.dcf packetDrop:sum(packetBytes) 20860912
attr interpolationmode none
attr recordingmode sum(packetBytes)
attr source packetDropped
attr title "packet drops, sum(packetBytes)"
scalar Throughput.cliHost[0].wlan.mac.dcf packetDropNotAddressedToUs:count 1424
attr interpolationmode none
attr recordingmode count
attr source packetDropReasonIsNotAddressedToUs(packetDropped)
attr title "packet drops: not addressed to us, count"
scalar Throughput.cliHost[0].wlan.mac.dcf packetDropNotAddressedToUs:sum(packetBytes) 744040
attr interpolationmode none
attr recordingmode sum(packetBytes)
attr source packetDropReasonIsNotAddressedToUs(packetDropped)
attr title "packet drops: not addressed to us, sum(packetBytes)"
scalar Throughput.cliHost[0].wlan.mac.dcf packetDropQueueOverflow:count 19512
attr interpolationmode none
attr recordingmode count
attr source packetDropReasonIsQueueOverflow(packetDropped)
attr title "packet drops: queue overflow, count"
scalar Throughput.cliHost[0].wlan.mac.dcf packetDropQueueOverflow:sum(packetBytes) 20116872
attr interpolationmode none
attr recordingmode sum(packetBytes)
attr source packetDropReasonIsQueueOverflow(packetDropped)
attr title "packet drops: queue overflow, sum(packetBytes)"
scalar Throughput.cliHost[0].wlan.mac.dcf packetDropRetryLimitReached:count 0
attr interpolationmode none
attr recordingmode count
attr source packetDropReasonIsRetryLimitReached(packetDropped)
attr title "packet drops: retry limit reached, count"
scalar Throughput.cliHost[0].wlan.mac.dcf packetDropRetryLimitReached:sum(packetBytes) 0
attr interpolationmode none
attr recordingmode sum(packetBytes)
attr source packetDropReasonIsRetryLimitReached(packetDropped)
attr title "packet drops: retry limit reached, sum(packetBytes)"
scalar Throughput.cliHost[0].wlan.mac.dcf linkBroken:count 0
attr interpolationmode none
attr recordingmode count
attr title "link breaks, count"
scalar Throughput.cliHost[0].wlan.mac packetReceivedFromLower:count 1811
attr interpolationmode none
attr recordingmode count
attr title "packets received from lower layer, count"
scalar Throughput.cliHost[0].wlan.mac packetReceivedFromLower:sum(packetBytes) 749458
attr interpolationmode none
attr recordingmode sum(packetBytes)
attr title "packets received from lower layer, sum(packetBytes)"
scalar Throughput.cliHost[0].wlan.mac packetSentToLower:count 409
attr interpolationmode none
attr recordingmode count
attr title "packets sent to lower layer, count"
scalar Throughput.cliHost[0].wlan.mac packetSentToLower:sum(packetBytes) 421679
attr interpolationmode none
attr recordingmode sum(packetBytes)
attr title "packets sent to lower layer, sum(packetBytes)"
scalar Throughput.cliHost[0].wlan.mac packetReceivedFromUpper:count 20000
attr interpolationmode none
attr recordingmode count
attr title "packets received from upper layer, count"
scalar Throughput.cliHost[0].wlan.mac packetReceivedFromUpper:sum(packetBytes) 20060000
attr interpolationmode none
attr recordingmode sum(packetBytes)
attr title "packets received from upper layer, sum(packetBytes)"
scalar Throughput.cliHost[0].wlan.mac packetSentToUpper:count 0
attr interpolationmode none
attr recordingmode count
attr title "packets sent to upper layer, count"
scalar Throughput.cliHost[0].wlan.mac packetSentToUpper:sum(packetBytes) 0
attr interpolationmode none
attr recordingmode sum(packetBytes)
attr title "packets sent to upper layer, sum(packetBytes)"
scalar Throughput.cliHost[0].wlan.mac packetDrop:count 20936
attr interpolationmode none
attr recordingmode count
attr source packetDropped
attr title "packet drops, count"
scalar Throughput.cliHost[0].wlan.mac packetDrop:sum(packetBytes) 20860912
attr interpolationmode none
attr recordingmode sum(packetBytes)
attr source packetDropped
attr title "packet drops, sum(packetBytes)"
scalar Throughput.cliHost[0].wlan.mac packetDropIncorrectlyReceived:count 0
attr interpolationmode none
attr recordingmode count
attr source packetDropReasonIsIncorrectlyReceived(packetDropped)
attr title "packet drops: incorrectly received, count"
scalar Throughput.cliHost[0].wlan.mac packetDropIncorrectlyReceived:sum(packetBytes) 0
attr interpolationmode none
attr recordingmode sum(packetBytes)
attr source packetDropReasonIsIncorrectlyReceived(packetDropped)
attr title "packet drops: incorrectly received, sum(packetBytes)"
scalar Throughput.cliHost[0].wlan.mac packetDropNotAddressedToUs:count 1424
attr interpolationmode none
attr recordingmode count
attr source packetDropReasonIsNotAddressedToUs(packetDropped)
attr title "packet drops: not addressed to us, count"
scalar Throughput.cliHost[0].wlan.mac packetDropNotAddressedToUs:sum(packetBytes) 744040
attr interpolationmode none
attr recordingmode sum(packetBytes)
attr source packetDropReasonIsNotAddressedToUs(packetDropped)
attr title "packet drops: not addressed to us, sum(packetBytes)"
scalar Throughput.cliHost[0].wlan.mac packetDropQueueOverflow:count 19512
attr interpolationmode none
attr recordingmode count
attr source packetDropReasonIsQueueOverflow(packetDropped)
attr title "packet drops: queue overflow, count"
scalar Throughput.cliHost[0].wlan.mac packetDropQueueOverflow:sum(packetBytes) 20116872
attr interpolationmode none
attr recordingmode sum(packetBytes)
attr source packetDropReasonIsQueueOverflow(packetDropped)
attr title "packet drops: queue overflow, sum(packetBytes)"
scalar Throughput.cliHost[0].wlan.mac packetDropRetryLimitReached:count 0
attr interpolationmode none
attr recordingmode count
attr source packetDropReasonIsRetryLimitReached(packetDropped)
attr title "packet drops: retry limit reached, count"
scalar Throughput.cliHost[0].wlan.mac packetDropRetryLimitReached:sum(packetBytes) 0
attr interpolationmode none
attr recordingmode sum(packetBytes)
attr source packetDropReasonIsRetryLimitReached(packetDropped)
attr title "packet drops: retry limit reached, sum(packetBytes)"
scalar Throughput.cliHost[0].wlan.mac packetDropDuplicateDetected:count 0
attr interpolationmode none
attr recordingmode count
attr source packetDropReasonIsDuplicateDetected(packetDropped)
attr title "packet drops: duplicate detected, count"
scalar Throughput.cliHost[0].wlan.mac packetDropDuplicateDetected:sum(packetBytes) 0
attr interpolationmode none
attr recordingmode sum(packetBytes)
attr source packetDropReasonIsDuplicateDetected(packetDropped)
attr title "packet drops: duplicate detected, sum(packetBytes)"
scalar Throughput.cliHost[0].wlan.mac packetDropOther:count 0
attr interpolationmode none
attr recordingmode count
attr source packetDropReasonIsOther(packetDropped)
attr title "packet drops: other, count"
scalar Throughput.cliHost[0].wlan.mac packetDropOther:sum(packetBytes) 0
attr interpolationmode none
attr recordingmode sum(packetBytes)
attr source packetDropReasonIsOther(packetDropped)
attr title "packet drops: other, sum(packetBytes)"
scalar Throughput.cliHost[0].wlan.mac linkBroken:count 0
attr interpolationmode none
attr recordingmode count
attr title "link breaks, count"
statistic Throughput.cliHost[0].wlan.radio radioChannel:histogram
field count 1
field mean 0
field stddev nan
field min 0
field max 0
field sum 0
field sqrsum 0
attr interpolationmode sample-hold
attr recordingmode histogram
attr source radioChannelChanged
attr title "Radio channel"
bin	-inf	0
bin	-0.5	0
bin	-0.48	0
bin	-0.46	0
bin	-0.44	0
bin	-0.42	0
bin	-0.4	0
bin	-0.38	0
bin	-0.36	0
bin	-0.34	0
bin	-0.32	0
bin	-0.3	0
bin	-0.28	0
bin	-0.26	0
bin	-0.24	0
bin	-0.22	0
bin	-0.2	0
bin	-0.18	0
bin	-0.16	0
bin	-0.14	0
bin	-0.12	0
bin	-0.1	0
bin	-0.08	0
bin	-0.06	0
bin	-0.04	0
bin	-0.02	0
bin	0	1
bin	0.02	0
bin	0.04	0
bin	0.06	0
bin	0.08	0
bin	0.1	0
bin	0.12	0
bin	0.14	0
bin	0.16	0
bin	0.18	0
bin	0.2	0
bin	0.22	0
bin	0.24	0
bin	0.26	0
bin	0.28	0
bin	0.3	0
bin	0.32	0
bin	0.34	0
bin	0.36	0
bin	0.38	0
bin	0.4	0
bin	0.42	0
bin	0.44	0
bin	0.46	0
bin	0.48	0
bin	0.5	0
scalar Throughput.cliHost[0].wlan.radio radioMode:count 821
attr interpolationmode sample-hold
attr recordingmode count
attr source radioModeChanged
attr title "Radio mode, count"
scalar Throughput.cliHost[0].wlan.radio receptionState:count 4506
attr interpolationmode sample-hold
attr recordingmode count
attr source receptionStateChanged
attr title "Radio reception state, count"
scalar Throughput.cliHost[0].wlan.radio transmissionState:count 1636
attr interpolationmode sample-hold
attr recordingmode count
attr source transmissionStateChanged
attr title "Radio transmission state, count"
statistic Throughput.cliHost[0].wlan.radio minSnir:histogram
field count 1811
field mean 23750.480371485
field stddev 11105.840458765
field min 16.63451831464
field max 34564.839047495
field sum 43012119.95276
field sqrsum 1244803353728.9
attr recordingmode histogram
attr source minimumSnir(packetSentToUpper)
attr title "Min SNIR"
bin	-inf	0
bin	0	18
bin	500	0
bin	1000	0
bin	1500	0
bin	2000	336
bin	2500	0
bin	3000	0
bin	3500	0
bin	4000	0
bin	4500	0
bin	5000	0
bin	5500	0
bin	6000	0
bin	6500	0
bin	7000	0
bin	7500	0
bin	8000	0
bin	8500	0
bin	9000	0
bin	9500	0
bin	10000	0
bin	10500	0
bin	11000	0
bin	11500	0
bin	12000	0
bin	12500	0
bin	13000	0
bin	13500	0
bin	14000	0
bin	14500	0
bin	15000	0
bin	15500	0
bin	16000	0
bin	16500	0
bin	17000	0
bin	17500	0
bin	18000	0
bin	18500	0
bin	19000	0
bin	19500	0
bin	20000	0
bin	20500	0
bin	21000	0
bin	21500	0
bin	22000	0
bin	22500	0
bin	23000	0
bin	23500	0
bin	24000	0
bin	24500	0
bin	25000	0
bin	25500	0
bin	26000	0
bin	26500	0
bin	27000	1099
bin	27500	0
bin	28000	0
bin	28500	0
bin	29000	0
bin	29500	0
bin	30000	0
bin	30500	0
bin	31000	0
bin	31500	0
bin	32000	0
bin	32500	0
bin	33000	0
bin	33500	0
bin	34000	0
bin	34500	358
bin	35000	0
bin	35500	0
bin	36000	0
bin	36500	0
bin	37000	0
bin	37500	0
bin	38000	0
bin	38500	0
bin	39000	0
bin	39500	0
bin	40000	0
bin	40500	0
bin	41000	0
bin	41500	0
bin	42000	0
bin	42500	0
bin	43000	0
statistic Throughput.cliHost[0].wlan.radio packetErrorRate:histogram
field count 1811
field mean 1.464714600298e-13
field stddev 1.4622675437985e-12
field min 0
field max 1.4736656339664e-11
field sum 2.6525981411396e-10
field sqrsum 3.9090427213207e-21
attr recordingmode histogram
attr source packetErrorRate(packetSentToUpper)
attr title "Packet error rate"
bin	-inf	0
bin	-0.5	0
bin	-0.48	0
bin	-0.46	0
bin	-0.44	0
bin	-0.42	0
bin	-0.4	0
bin	-0.38	0
bin	-0.36	0
bin	-0.34	0
bin	-0.32	0
bin	-0.3	0
bin	-0.28	0
bin	-0.26	0
bin	-0.24	0
bin	-0.22	0
bin	-0.2	0
bin	-0.18	0
bin	-0.16	0
bin	-0.14	0
bin	-0.12	0
bin	-0.1	0
bin	-0.08	0
bin	-0.06	0
bin	-0.04	0
bin	-0.02	0
bin	0	1811
bin	0.02	0
bin	0.04	0
bin	0.06	0
bin	0.08	0
bin	0.1	0
bin	0.12	0
bin	0.14	0
bin	0.16	0
bin	0.18	0
bin	0.2	0
bin	0.22	0
bin	0.24	0
bin	0.26	0
bin	0.28	0
bin	0.3	0
bin	0.32	0
bin	0.34	0
bin	0.36	0
bin	0.38	0
bin	0.4	0
bin	0.42	0
bin	0.44	0
bin	0.46	0
bin	0.48	0
bin	0.5	0
statistic Throughput.cliHost[0].wlan.radio bitErrorRate:histogram
field count 0
field mean -nan
field stddev nan
field min nan
field max nan
field sum 0
field sqrsum 0
attr recordingmode histogram
attr source bitErrorRate(packetSentToUpper)
attr title "Bit error rate"
bin	-inf	0
bin	0	0
bin	1	0
statistic Throughput.cliHost[0].wlan.radio symbolErrorRate:histogram
field count 0
field mean -nan
field stddev nan
field min nan
field max nan
field sum 0
field sqrsum 0
attr recordingmode histogram
attr source symbolErrorRate(packetSentToUpper)
attr title "Symbol error rate"
bin	-inf	0
bin	0	0
bin	1	0
scalar Throughput.cliHost[0].wlan packetDropInterfaceDown:count 0
attr interpolationmode none
attr recordingmode count
attr source packetDropReasonIsInterfaceDown(packetDropped)
attr title "packet drops: interface down, count"
scalar Throughput.cliHost[0].wlan packetDropInterfaceDown:sum(packetBytes) 0
attr interpolationmode none
attr recordingmode sum(packetBytes)
attr source packetDropReasonIsInterfaceDown(packetDropped)
attr title "packet drops: interface down, sum(packetBytes)"
scalar Throughput.cliHost[0].wlan packetDropNoCarrier:count 0
attr interpolationmode none
attr recordingmode count
attr source packetDropReasonIsNoCarrier(packetDropped)
attr title "packet drops: no carrier, count"
scalar Throughput.cliHost[0].wlan packetDropNoCarrier:sum(packetBytes) 0
attr interpolationmode none
attr recordingmode sum(packetBytes)
attr source packetDropReasonIsNoCarrier(packetDropped)
attr title "packet drops: no carrier, sum(packetBytes)"
scalar Throughput.cliHost[1].cli packetReceived:count 0
attr interpolationmode none
attr recordingmode count
attr source packetReceived
attr title "packets received, count"
scalar Throughput.cliHost[1].cli packetReceived:sum(packetBytes) 0
attr interpolationmode none
attr recordingmode sum(packetBytes)
attr source packetReceived
attr title "packets received, sum(packetBytes)"
statistic Throughput.cliHost[1].cli endToEndDelay:histogram
field count 0
field mean -nan
field stddev nan
field min nan
field max nan
field sum 0
field sqrsum 0
attr interpolationmode none
attr recordingmode histogram
attr source dataAge(packetReceived)
attr title "end-to-end delay"
attr unit s
bin	-inf	0
bin	0	0
bin	1	0
scalar Throughput.cliHost[1].cli packetSent:count 20000
attr interpolationmode none
attr recordingmode count
attr source packetSent
attr title "packets sent, count"
scalar Throughput.cliHost[1].cli packetSent:sum(packetBytes) 20000000
attr interpolationmode none
attr recordingmode sum(packetBytes)
attr source packetSent
attr title "packets sent, sum(packetBytes)"
scalar Throughput.cliHost[1].wlan.mac.dcf.channelAccess.pendingQueue queueLength:last 100
attr autoWarmupFilter false
attr interpolationmode sample-hold
attr recordingmode last
attr source "warmup(atomic(constant0(packetPushEnded) + count(packetPushStarted) - count(packetPulled) - count(packetRemoved) - count(packetDropped)))"
attr title "queue length, last"
attr unit pk
scalar Throughput.cliHost[1].wlan.mac.dcf.channelAccess.pendingQueue queueLength:max 100
attr autoWarmupFilter false
attr interpolationmode sample-hold
attr recordingmode max
attr source "warmup(atomic(constant0(packetPushEnded) + count(packetPushStarted) - count(packetPulled) - count(packetRemoved) - count(packetDropped)))"
attr title "queue length, max"
attr unit pk
scalar Throughput.cliHost[1].wlan.mac.dcf.channelAccess.pendingQueue queueLength:timeavg 99.733071742408
attr autoWarmupFilter false
attr interpolationmode sample-hold
attr recordingmode timeavg
attr source "warmup(atomic(constant0(packetPushEnded) + count(packetPushStarted) - count(packetPulled) - count(packetRemoved) - count(packetDropped)))"
attr title "queue length, timeavg"
attr unit pk
scalar Throughput.cliHost[1].wlan.mac.dcf.channelAccess.pendingQueue queueBitLength:last 824800
attr autoWarmupFilter false
attr interpolationmode sample-hold
attr recordingmode last
attr source "warmup(atomic(constant0(packetPushEnded) + sum(packetLength(packetPushStarted)) - sum(packetLength(packetPulled)) - sum(packetLength(packetRemoved)) - sum(packetLength(packetDropped))))"
attr title "queue bit length, last"
attr unit b
scalar Throughput.cliHost[1].wlan.mac.dcf.channelAccess.pendingQueue queueBitLength:max 824800
attr autoWarmupFilter false
attr interpolationmode sample-hold
attr recordingmode max
attr source "warmup(atomic(constant0(packetPushEnded) + sum(packetLength(packetPushStarted)) - sum(packetLength(packetPulled)) - sum(packetLength(packetRemoved)) - sum(packetLength(packetDropped))))"
attr title "queue bit length, max"
attr unit b
scalar Throughput.cliHost[1].wlan.mac.dcf.channelAccess.pendingQueue queueBitLength:timeavg 822598.37573197
attr autoWarmupFilter false
attr interpolationmode sample-hold
attr recordingmode timeavg
attr source "warmup(atomic(constant0(packetPushEnded) + sum(packetLength(packetPushStarted)) - sum(packetLength(packetPulled)) - sum(packetLength(packetRemoved)) - sum(packetLength(packetDropped))))"
attr title "queue bit length, timeavg"
attr unit b
statistic Throughput.cliHost[1].wlan.mac.dcf.channelAccess.pendingQueue queueingTime:histogram
field count 338
field mean 2.5244019257058
field stddev 0.81504972416858
field min 0.008325023812
field max 3.220839328675
field sum 853.24785088857
field sqrsum 2377.8116577037
attr interpolationmode none
attr recordingmode histogram
attr source queueingTime(packetPulled)
attr title "queueing times"
attr unit s
bin	-inf	0
bin	0	4
bin	0.05	1
bin	0.1	2
bin	0.15	1
bin	0.2	1
bin	0.25	2
bin	0.3	4
bin	0.35	1
bin	0.4	1
bin	0.45	1
bin	0.5	2
bin	0.55	1
bin	0.6	2
bin	0.65	2
bin	0.7	2
bin	0.75	1
bin	0.8	1
bin	0.85	1
bin	0.9	2
bin	0.95	1
bin	1	1
bin	1.05	2
bin	1.1	2
bin	1.15	2
bin	1.2	0
bin	1.25	2
bin	1.3	3
bin	1.35	1
bin	1.4	1
bin	1.45	2
bin	1.5	2
bin	1.55	1
bin	1.6	3
bin	1.65	0
bin	1.7	0
bin	1.75	1
bin	1.8	2
bin	1.85	2
bin	1.9	2
bin	1.95	2
bin	2	1
bin	2.05	0
bin	2.1	0
bin	2.15	1
bin	2.2	2
bin	2.25	1
bin	2.3	2
bin	2.35	3
bin	2.4	1
bin	2.45	1
bin	2.5	3
bin	2.55	2
bin	2.6	1
bin	2.65	3
bin	2.7	8
bin	2.75	15
bin	2.8	44
bin	2.85	42
bin	2.9	38
bin	2.95	55
bin	3	24
bin	3.05	9
bin	3.1	10
bin	3.15	5
bin	3.2	3
bin	3.25	0
bin	3.3	0
bin	3.35	0
bin	3.4	0
bin	3.45	0
bin	3.5	0
bin	3.55	0
bin	3.6	0
bin	3.65	0
bin	3.7	0
bin	3.75	0
bin	3.8	0
bin	3.85	0
bin	3.9	0
bin	3.95	0
bin	4	0
bin	4.05	0
scalar Throughput.cliHost[1].wlan.mac.dcf.channelAccess.pendingQueue outgoingPackets:count 338
attr recordingmode count
attr source packetPulled
attr title "outgoing packets, count"
attr unit pk
scalar Throughput.cliHost[1].wlan.mac.dcf.channelAccess.pendingQueue outgoingPacketLengths:sum 2787824
attr interpolationmode none
attr recordingmode sum
attr source packetLength(packetPulled)
attr title "outgoing packet lengths, sum"
attr unit b
statistic Throughput.cliHost[1].wlan.mac.dcf.channelAccess.pendingQueue outgoingPacketLengths:histogram
field count 338
field mean 8248
field stddev 0
field min 8248
field max 8248
field sum 2787824
field sqrsum 22993972352
attr interpolationmode none
attr recordingmode histogram
attr source packetLength(packetPulled)
attr title "outgoing packet lengths"
attr unit b
bin	-inf	0
bin	8247	0
bin	8248	338
bin	8249	0
statistic Throughput.cliHost[1].wlan.mac.dcf.channelAccess.pendingQueue flowQueueingTime:histogram
field count 0
field mean -nan
field stddev nan
field min nan
field max nan
field sum 0
field sqrsum 0
attr interpolationmode none
attr recordingmode histogram
attr source queueingTime(demuxFlow(packetPulled))
attr title "flow queueing times"
attr unit s
bin	-inf	0
bin	0	0
bin	1	0
scalar Throughput.cliHost[1].wlan.mac.dcf.channelAccess.pendingQueue incomingPackets:count 20000
attr recordingmode count
attr source packetPushStarted
attr title "incoming packets, count"
attr unit pk
scalar Throughput.cliHost[1].wlan.mac.dcf.channelAccess.pendingQueue incomingPacketLengths:sum 164960000
attr interpolationmode none
attr recordingmode sum
attr source packetLength(packetPushStarted)
attr title "incoming packet lengths, sum"
attr unit b
statistic Throughput.cliHost[1].wlan.mac.dcf.channelAccess.pendingQueue incomingPacketLengths:histogram
field count 20000
field mean 8248
field stddev 0
field min 8248
field max 8248
field sum 164960000
field sqrsum 1360590080000
attr interpolationmode none
attr recordingmode histogram
attr source packetLength(packetPushStarted)
attr title "incoming packet lengths"
attr unit b
bin	-inf	0
bin	8247	0
bin	8248	20000
bin	8249	0
scalar Throughput.cliHost[1].wlan.mac.dcf.channelAccess.pendingQueue droppedPacketsQueueOverflow:count 19562
attr interpolationmode none
attr recordingmode count
attr source packetDropReasonIsQueueOverflow(packetDropped)
attr title "dropped packets: queue overflow, count"
attr unit pk
scalar Throughput.cliHost[1].wlan.mac.dcf.channelAccess.pendingQueue droppedPacketLengthsQueueOverflow:sum 161347376
attr interpolationmode none
attr recordingmode sum
attr source packetLength(packetDropReasonIsQueueOverflow(packetDropped))
attr title "dropped packet lengths: queue overflow, sum"
attr unit b
statistic Throughput.cliHost[1].wlan.mac.dcf.channelAccess.inProgressFrames queueingTime:histogram
field count 336
field mean 0.043574293564268
field stddev 0.026771750837762
field min 0.008755711776
field max 0.16971704545
field sum 14.640962637594
field sqrsum 0.87807302941193
attr interpolationmode none
attr recordingmode histogram
attr source queueingTime(packetDequeued)
attr title "queueing times"
bin	-inf	0
bin	0	0
bin	0.002	0
bin	0.004	0
bin	0.006	0
bin	0.008	1
bin	0.01	0
bin	0.012	0
bin	0.014	0
bin	0.016	59
bin	0.018	0
bin	0.02	0
bin	0.022	0
bin	0.024	0
bin	0.026	71
bin	0.028	0
bin	0.03	0
bin	0.032	0
bin	0.034	60
bin	0.036	0
bin	0.038	0
bin	0.04	0
bin	0.042	0
bin	0.044	47
bin	0.046	0
bin	0.048	0
bin	0.05	0
bin	0.052	32
bin	0.054	1
bin	0.056	0
bin	0.058	0
bin	0.06	1
bin	0.062	13
bin	0.064	0
bin	0.066	0
bin	0.068	0
bin	0.07	17
bin	0.072	0
bin	0.074	0
bin	0.076	0
bin	0.078	0
bin	0.08	4
bin	0.082	0
bin	0.084	0
bin	0.086	0
bin	0.088	7
bin	0.09	0
bin	0.092	0
bin	0.094	0
bin	0.096	3
bin	0.098	5
bin	0.1	0
bin	0.102	0
bin	0.104	0
bin	0.106	3
bin	0.108	0
bin	0.11	0
bin	0.112	0
bin	0.114	2
bin	0.116	1
bin	0.118	0
bin	0.12	0
bin	0.122	0
bin	0.124	4
bin	0.126	0
bin	0.128	0
bin	0.13	0
bin	0.132	2
bin	0.134	0
bin	0.136	0
bin	0.138	0
bin	0.14	0
bin	0.142	0
bin	0.144	1
bin	0.146	0
bin	0.148	0
bin	0.15	0
bin	0.152	0
bin	0.154	0
bin	0.156	0
bin	0.158	1
bin	0.16	0
bin	0.162	0
bin	0.164	0
bin	0.166	0
bin	0.168	1
bin	0.17	0
bin	0.172	0
bin	0.174	0
bin	0.176	0
bin	0.178	0
bin	0.18	0
bin	0.182	0
bin	0.184	0
bin	0.186	0
bin	0.188	0
bin	0.19	0
bin	0.192	0
bin	0.194	0
bin	0.196	0
bin	0.198	0
bin	0.2	0
bin	0.202	0
bin	0.204	0
bin	0.206	0
bin	0.208	0
bin	0.21	0
scalar Throughput.cliHost[1].wlan.mac.dcf.channelAccess.inProgressFrames queueLength:max 2
attr autoWarmupFilter false
attr interpolationmode sample-hold
attr recordingmode max
attr source "warmup(count(packetEnqueued) - count(packetDequeued))"
attr title "queue length, max"
scalar Throughput.cliHost[1].wlan.mac.dcf.channelAccess.inProgressFrames queueLength:timeavg 1.4651461421886
attr autoWarmupFilter false
attr interpolationmode sample-hold
attr recordingmode timeavg
attr source "warmup(count(packetEnqueued) - count(packetDequeued))"
attr title "queue length, timeavg"
scalar Throughput.cliHost[1].wlan.mac.dcf.channelAccess.contention channelAccessGranted:count 380
attr recordingmode count
attr title "channel access granted, count"
scalar Throughput.cliHost[1].wlan.mac.dcf.channelAccess.contention stateChanged:count 8934
attr enum IDLE,DEFER,IFS_AND_BACKOFF
attr interpolationmode none
attr recordingmode count
attr title "contention state changed, count"
attr type enum
scalar Throughput.cliHost[1].wlan.mac.dcf.channelAccess channelOwnershipChanged:count 759
attr interpolationmode sample-hold
attr recordingmode count
attr title "channel ownership, count"
scalar Throughput.cliHost[1].wlan.mac.dcf.originatorMacDataService packetAggregated:count 0
attr recordingmode count
attr title "packets aggregated, count"
scalar Throughput.cliHost[1].wlan.mac.dcf.originatorMacDataService packetFragmented:count 0
attr recordingmode count
attr title "packets fragmented, count"
scalar Throughput.cliHost[1].wlan.mac.dcf.recipientMacDataService packetDeaggregated:count 0
attr recordingmode count
attr title "packets deaggregated, count"
scalar Throughput.cliHost[1].wlan.mac.dcf.recipientMacDataService packetDefragmented:count 0
attr recordingmode count
attr title "packets defragmented, count"
scalar Throughput.cliHost[1].wlan.mac.dcf.recipientMacDataService packetDropDuplicateDetected:count 0
attr interpolationmode none
attr recordingmode count
attr source packetDropReasonIsDuplicateDetected(packetDropped)
attr title "packet drops: duplicate detected, count"
scalar Throughput.cliHost[1].wlan.mac.dcf.recipientMacDataService packetDropDuplicateDetected:sum(packetBytes) 0
attr interpolationmode none
attr recordingmode sum(packetBytes)
attr source packetDropReasonIsDuplicateDetected(packetDropped)
attr title "packet drops: duplicate detected, sum(packetBytes)"
scalar Throughput.cliHost[1].wlan.mac.dcf.recoveryProcedure retryLimitReached:count 0
attr recordingmode count
attr title "retry limit reached, count"
scalar Throughput.cliHost[1].wlan.mac.dcf frameSequenceFinished:count 379
attr recordingmode count
attr title "finished frame sequences, count"
statistic Throughput.cliHost[1].wlan.mac.dcf frameSequenceDuration:histogram
field count 379
field mean 0.0087553256626491
field stddev 4.822776710779e-06
field min 0.008662
field max 0.008755711776
field sum 3.318268426144
field sqrsum 0.029052529498945
attr recordingmode histogram
attr source frameSequenceDuration(frameSequenceFinished)
attr title "frame sequence durations"
bin	-inf	0
bin	0.00866198	1
bin	0.00866356	0
bin	0.00866514	0
bin	0.00866672	0
bin	0.0086683	0
bin	0.00866988	0
bin	0.00867146	0
bin	0.00867304	0
bin	0.00867462	0
bin	0.0086762	0
bin	0.00867778	0
bin	0.00867936	0
bin	0.00868094	0
bin	0.00868252	0
bin	0.0086841	0
bin	0.00868568	0
bin	0.00868726	0
bin	0.00868884	0
bin	0.00869042	0
bin	0.008692	0
bin	0.00869358	0
bin	0.00869516	0
bin	0.00869674	0
bin	0.00869832	0
bin	0.0086999	0
bin	0.00870148	0
bin	0.00870306	0
bin	0.00870464	0
bin	0.00870622	0
bin	0.0087078	0
bin	0.00870938	0
bin	0.00871096	0
bin	0.00871254	0
bin	0.00871412	0
bin	0.0087157	0
bin	0.00871728	0
bin	0.00871886	0
bin	0.00872044	0
bin	0.00872202	0
bin	0.0087236	0
bin	0.00872518	0
bin	0.00872676	0
bin	0.00872834	0
bin	0.00872992	0
bin	0.0087315	0
bin	0.00873308	0
bin	0.00873466	0
bin	0.00873624	0
bin	0.00873782	0
bin	0.0087394	0
bin	0.00874098	0
bin	0.00874256	0
bin	0.00874414	0
bin	0.00874572	0
bin	0.0087473	0
bin	0.00874888	0
bin	0.00875046	0
bin	0.00875204	0
bin	0.00875362	42
bin	0.0087552	336
bin	0.00875678	0
statistic Throughput.cliHost[1].wlan.mac.dcf frameSequenceNumPackets:histogram
field count 379
field mean 2
field stddev 0
field min 2
field max 2
field sum 758
field sqrsum 1516
attr recordingmode histogram
attr source frameSequenceNumPackets(frameSequenceFinished)
attr title "frame sequences: number of packets"
bin	-inf	0
bin	1	0
bin	2	379
bin	3	0
scalar Throughput.cliHost[1].wlan.mac.dcf packetReceivedFromPeer:count 336
attr interpolationmode none
attr recordingmode count
attr title "packets received, count"
scalar Throughput.cliHost[1].wlan.mac.dcf packetReceivedFromPeer:sum(packetBytes) 4704
attr interpolationmode none
attr recordingmode sum(packetBytes)
attr title "packets received, sum(packetBytes)"
scalar Throughput.cliHost[1].wlan.mac.dcf packetReceivedFromPeerUnicast:count 336
attr interpolationmode none
attr recordingmode count
attr source ieee80211Unicast(packetReceivedFromPeer)
attr title "packets received: unicast, count"
scalar Throughput.cliHost[1].wlan.mac.dcf packetReceivedFromPeerUnicast:sum(packetBytes) 4704
attr interpolationmode none
attr recordingmode sum(packetBytes)
attr source ieee80211Unicast(packetReceivedFromPeer)
attr title "packets received: unicast, sum(packetBytes)"
scalar Throughput.cliHost[1].wlan.mac.dcf packetReceivedFromPeerMulticast:count 0
attr interpolationmode none
attr recordingmode count
attr source ieee80211Multicast(packetReceivedFromPeer)
attr title "packets received: multicast, count"
scalar Throughput.cliHost[1].wlan.mac.dcf packetReceivedFromPeerMulticast:sum(packetBytes) 0
attr interpolationmode none
attr recordingmode sum(packetBytes)
attr source ieee80211Multicast(packetReceivedFromPeer)
attr title "packets received: multicast, sum(packetBytes)"
scalar Throughput.cliHost[1].wlan.mac.dcf packetReceivedFromPeerBroadcast:count 0
attr interpolationmode none
attr recordingmode count
attr source ieee80211Broadcast(packetReceivedFromPeer)
attr title "packets received: broadcast, count"
scalar Throughput.cliHost[1].wlan.mac.dcf packetReceivedFromPeerBroadcast:sum(packetBytes) 0
attr interpolationmode none
attr recordingmode sum(packetBytes)
attr source ieee80211Broadcast(packetReceivedFromPeer)
attr title "packets received: broadcast, sum(packetBytes)"
scalar Throughput.cliHost[1].wlan.mac.dcf packetReceivedFromPeerWithRetry:count 0
attr interpolationmode none
attr recordingmode count
attr source ieee80211Retry(packetReceivedFromPeer)
attr title "packets received: with retry, count"
scalar Throughput.cliHost[1].wlan.mac.dcf packetReceivedFromPeerWithRetry:sum(packetBytes) 0
attr interpolationmode none
attr recordingmode sum(packetBytes)
attr source ieee80211Retry(packetReceivedFromPeer)
attr title "packets received: with retry, sum(packetBytes)"
scalar Throughput.cliHost[1].wlan.mac.dcf packetReceivedFromPeerWithoutRetry:count 336
attr interpolationmode none
attr recordingmode count
attr source ieee80211NotRetry(packetReceivedFromPeer)
attr title "packets received: without retry, count"
scalar Throughput.cliHost[1].wlan.mac.dcf packetReceivedFromPeerWithoutRetry:sum(packetBytes) 4704
attr interpolationmode none
attr recordingmode sum(packetBytes)
attr source ieee80211NotRetry(packetReceivedFromPeer)
attr title "packets received: without retry, sum(packetBytes)"
scalar Throughput.cliHost[1].wlan.mac.dcf packetSentToPeer:count 379
attr interpolationmode none
attr recordingmode count
attr title "packets sent, count"
scalar Throughput.cliHost[1].wlan.mac.dcf packetSentToPeer:sum(packetBytes) 390749
attr interpolationmode none
attr recordingmode sum(packetBytes)
attr title "packets sent, sum(packetBytes)"
scalar Throughput.cliHost[1].wlan.mac.dcf packetSentToPeerUnicast:count 379
attr interpolationmode none
attr recordingmode count
attr source ieee80211Unicast(packetSentToPeer)
attr title "packets sent: unicast, count"
scalar Throughput.cliHost[1].wlan.mac.dcf packetSentToPeerUnicast:sum(packetBytes) 390749
attr interpolationmode none
attr recordingmode sum(packetBytes)
attr source ieee80211Unicast(packetSentToPeer)
attr title "packets sent: unicast, sum(packetBytes)"
scalar Throughput.cliHost[1].wlan.mac.dcf packetSentToPeerMulticast:count 0
attr interpolationmode none
attr recordingmode count
attr source ieee80211Multicast(packetSentToPeer)
attr title "packets sent: multicast, count"
scalar Throughput.cliHost[1].wlan.mac.dcf packetSentToPeerMulticast:sum(packetBytes) 0
attr interpolationmode none
attr recordingmode sum(packetBytes)
attr source ieee80211Multicast(packetSentToPeer)
attr title "packets sent: multicast, sum(packetBytes)"
scalar Throughput.cliHost[1].wlan.mac.dcf packetSentToPeerBroadcast:count 0
attr interpolationmode none
attr recordingmode count
attr source ieee80211Broadcast(packetSentToPeer)
attr title "packets sent: broadcast , count"
scalar Throughput.cliHost[1].wlan.mac.dcf packetSentToPeerBroadcast:sum(packetBytes) 0
attr interpolationmode none
attr recordingmode sum(packetBytes)
attr source ieee80211Broadcast(packetSentToPeer)
attr title "packets sent: broadcast , sum(packetBytes)"
scalar Throughput.cliHost[1].wlan.mac.dcf packetSentToPeerWithRetry:count 43
attr interpolationmode none
attr recordingmode count
attr source ieee80211Retry(packetSentToPeer)
attr title "packets sent: with retry, count"
scalar Throughput.cliHost[1].wlan.mac.dcf packetSentToPeerWithRetry:sum(packetBytes) 44333
attr interpolationmode none
attr recordingmode sum(packetBytes)
attr source ieee80211Retry(packetSentToPeer)
attr title "packets sent: with retry, sum(packetBytes)"
scalar Throughput.cliHost[1].wlan.mac.dcf packetSentToPeerWithoutRetry:count 336
attr interpolationmode none
attr recordingmode count
attr source ieee80211NotRetry(packetSentToPeer)
attr title "packets sent: without retry, count"
scalar Throughput.cliHost[1].wlan.mac.dcf packetSentToPeerWithoutRetry:sum(packetBytes) 346416
attr interpolationmode none
attr recordingmode sum(packetBytes)
attr source ieee80211NotRetry(packetSentToPeer)
attr title "packets sent: without retry, sum(packetBytes)"
scalar Throughput.cliHost[1].wlan.mac.dcf packetDrop:count 21004
attr interpolationmode none
attr recordingmode count
attr source packetDropped
attr title "packet drops, count"
scalar Throughput.cliHost[1].wlan.mac.dcf packetDrop:sum(packetBytes) 20921867
attr interpolationmode none
attr recordingmode sum(packetBytes)
attr source packetDropped
attr title "packet drops, sum(packetBytes)"
scalar Throughput.cliHost[1].wlan.mac.dcf packetDropNotAddressedToUs:count 1442
attr interpolationmode none
attr recordingmode count
attr source packetDropReasonIsNotAddressedToUs(packetDropped)
attr title "packet drops: not addressed to us, count"
scalar Throughput.cliHost[1].wlan.mac.dcf packetDropNotAddressedToUs:sum(packetBytes) 753445
attr interpolationmode none
attr recordingmode sum(packetBytes)
attr source packetDropReasonIsNotAddressedToUs(packetDropped)
attr title "packet drops: not addressed to us, sum(packetBytes)"
scalar Throughput.cliHost[1].wlan.mac.dcf packetDropQueueOverflow:count 19562
attr interpolationmode none
attr recordingmode count
attr source packetDropReasonIsQueueOverflow(packetDropped)
attr title "packet drops: queue overflow, count"
scalar Throughput.cliHost[1].wlan.mac.dcf packetDropQueueOverflow:sum(packetBytes) 20168422
attr interpolationmode none
attr recordingmode sum(packetBytes)
attr source packetDropReasonIsQueueOverflow(packetDropped)
attr title "packet drops: queue overflow, sum(packetBytes)"
scalar Throughput.cliHost[1].wlan.mac.dcf packetDropRetryLimitReached:count 0
attr interpolationmode none
attr recordingmode count
attr source packetDropReasonIsRetryLimitReached(packetDropped)
attr title "packet drops: retry limit reached, count"
scalar Throughput.cliHost[1].wlan.mac.dcf packetDropRetryLimitReached:sum(packetBytes) 0
attr interpolationmode none
attr recordingmode sum(packetBytes)
attr source packetDropReasonIsRetryLimitReached(packetDropped)
attr title "packet drops: retry limit reached, sum(packetBytes)"
scalar Throughput.cliHost[1].wlan.mac.dcf linkBroken:count 0
attr interpolationmode none
attr recordingmode count
attr title "link breaks, count"
scalar Throughput.cliHost[1].wlan.mac packetReceivedFromLower:count 1841
attr interpolationmode none
attr recordingmode count
attr title "packets received from lower layer, count"
scalar Throughput.cliHost[1].wlan.mac packetReceivedFromLower:sum(packetBytes) 780388
attr interpolationmode none
attr recordingmode sum(packetBytes)
attr title "packets received from lower layer, sum(packetBytes)"
scalar Throughput.cliHost[1].wlan.mac packetSentToLower:count 380
attr interpolationmode none
attr recordingmode count
attr title "packets sent to lower layer, count"
scalar Throughput.cliHost[1].wlan.mac packetSentToLower:sum(packetBytes) 391780
attr interpolationmode none
attr recordingmode sum(packetBytes)
attr title "packets sent to lower layer, sum(packetBytes)"
scalar Throughput.cliHost[1].wlan.mac packetReceivedFromUpper:count 20000
attr interpolationmode none
attr recordingmode count
attr title "packets received from upper layer, count"
scalar Throughput.cliHost[1].wlan.mac packetReceivedFromUpper:sum(packetBytes) 20060000
attr interpolationmode none
attr recordingmode sum(packetBytes)
attr title "packets received from upper layer, sum(packetBytes)"
scalar Throughput.cliHost[1].wlan.mac packetSentToUpper:count 0
attr interpolationmode none
attr recordingmode count
attr title "packets sent to upper layer, count"
scalar Throughput.cliHost[1].wlan.mac packetSentToUpper:sum(packetBytes) 0
attr interpolationmode none
attr recordingmode sum(packetBytes)
attr title "packets sent to upper layer, sum(packetBytes)"
scalar Throughput.cliHost[1].wlan.mac packetDrop:count 21025
attr interpolationmode none
attr recordingmode count
attr source packetDropped
attr title "packet drops, count"
scalar Throughput.cliHost[1].wlan.mac packetDrop:sum(packetBytes) 20943518
attr interpolationmode none
attr recordingmode sum(packetBytes)
attr source packetDropped
attr title "packet drops, sum(packetBytes)"
scalar Throughput.cliHost[1].wlan.mac packetDropIncorrectlyReceived:count 21
attr interpolationmode none
attr recordingmode count
attr source packetDropReasonIsIncorrectlyReceived(packetDropped)
attr title "packet drops: incorrectly received, count"
scalar Throughput.cliHost[1].wlan.mac packetDropIncorrectlyReceived:sum(packetBytes) 21651
attr interpolationmode none
attr recordingmode sum(packetBytes)
attr source packetDropReasonIsIncorrectlyReceived(packetDropped)
attr title "packet drops: incorrectly received, sum(packetBytes)"
scalar Throughput.cliHost[1].wlan.mac packetDropNotAddressedToUs:count 1442
attr interpolationmode none
attr recordingmode count
attr source packetDropReasonIsNotAddressedToUs(packetDropped)
attr title "packet drops: not addressed to us, count"
scalar Throughput.cliHost[1].wlan.mac packetDropNotAddressedToUs:sum(packetBytes) 753445
attr interpolationmode none
attr recordingmode sum(packetBytes)
attr source packetDropReasonIsNotAddressedToUs(packetDropped)
attr title "packet drops: not addressed to us, sum(packetBytes)"
scalar Throughput.cliHost[1].wlan.mac packetDropQueueOverflow:count 19562
attr interpolationmode none
attr recordingmode count
attr source packetDropReasonIsQueueOverflow(packetDropped)
attr title "packet drops: queue overflow, count"
scalar Throughput.cliHost[1].wlan.mac packetDropQueueOverflow:sum(packetBytes) 20168422
attr interpolationmode none
attr recordingmode sum(packetBytes)
attr source packetDropReasonIsQueueOverflow(packetDropped)
attr title "packet drops: queue overflow, sum(packetBytes)"
scalar Throughput.cliHost[1].wlan.mac packetDropRetryLimitReached:count 0
attr interpolationmode none
attr recordingmode count
attr source packetDropReasonIsRetryLimitReached(packetDropped)
attr title "packet drops: retry limit reached, count"
scalar Throughput.cliHost[1].wlan.mac packetDropRetryLimitReached:sum(packetBytes) 0
attr interpolationmode none
attr recordingmode sum(packetBytes)
attr source packetDropReasonIsRetryLimitReached(packetDropped)
attr title "packet drops: retry limit reached, sum(packetBytes)"
scalar Throughput.cliHost[1].wlan.mac packetDropDuplicateDetected:count 0
attr interpolationmode none
attr recordingmode count
attr source packetDropReasonIsDuplicateDetected(packetDropped)
attr title "packet drops: duplicate detected, count"
scalar Throughput.cliHost[1].wlan.mac packetDropDuplicateDetected:sum(packetBytes) 0
attr interpolationmode none
attr recordingmode sum(packetBytes)
attr source packetDropReasonIsDuplicateDetected(packetDropped)
attr title "packet drops: duplicate detected, sum(packetBytes)"
scalar Throughput.cliHost[1].wlan.mac packetDropOther:count 0
attr interpolationmode none
attr recordingmode count
attr source packetDropReasonIsOther(packetDropped)
attr title "packet drops: other, count"
scalar Throughput.cliHost[1].wlan.mac packetDropOther:sum(packetBytes) 0
attr interpolationmode none
attr recordingmode sum(packetBytes)
attr source packetDropReasonIsOther(packetDropped)
attr title "packet drops: other, sum(packetBytes)"
scalar Throughput.cliHost[1].wlan.mac linkBroken:count 0
attr interpolationmode none
attr recordingmode count
attr title "link breaks, count"
statistic Throughput.cliHost[1].wlan.radio radioChannel:histogram
field count 1
field mean 0
field stddev nan
field min 0
field max 0
field sum 0
field sqrsum 0
attr interpolationmode sample-hold
attr recordingmode histogram
attr source radioChannelChanged
attr title "Radio channel"
bin	-inf	0
bin	-0.5	0
bin	-0.48	0
bin	-0.46	0
bin	-0.44	0
bin	-0.42	0
bin	-0.4	0
bin	-0.38	0
bin	-0.36	0
bin	-0.34	0
bin	-0.32	0
bin	-0.3	0
bin	-0.28	0
bin	-0.26	0
bin	-0.24	0
bin	-0.22	0
bin	-0.2	0
bin	-0.18	0
bin	-0.16	0
bin	-0.14	0
bin	-0.12	0
bin	-0.1	0
bin	-0.08	0
bin	-0.06	0
bin	-0.04	0
bin	-0.02	0
bin	0	1
bin	0.02	0
bin	0.04	0
bin	0.06	0
bin	0.08	0
bin	0.1	0
bin	0.12	0
bin	0.14	0
bin	0.16	0
bin	0.18	0
bin	0.2	0
bin	0.22	0
bin	0.24	0
bin	0.26	0
bin	0.28	0
bin	0.3	0
bin	0.32	0
bin	0.34	0
bin	0.36	0
bin	0.38	0
bin	0.4	0
bin	0.42	0
bin	0.44	0
bin	0.46	0
bin	0.48	0
bin	0.5	0
scalar Throughput.cliHost[1].wlan.radio radioMode:count 762
attr interpolationmode sample-hold
attr recordingmode count
attr source radioModeChanged
attr title "Radio mode, count"
scalar Throughput.cliHost[1].wlan.radio receptionState:count 4506
attr interpolationmode sample-hold
attr recordingmode count
attr source receptionStateChanged
attr title "Radio reception state, count"
scalar Throughput.cliHost[1].wlan.radio transmissionState:count 1518
attr interpolationmode sample-hold
attr recordingmode count
attr source transmissionStateChanged
attr title "Radio transmission state, count"
statistic Throughput.cliHost[1].wlan.radio minSnir:histogram
field count 1841
field mean 2876.9771728323
field stddev 564.19588370261
field min 1.7160422214974
field max 3565.7613922347
field sum 5296514.9751842
field sqrsum 15823655950.313
attr recordingmode histogram
attr source minimumSnir(packetSentToUpper)
attr title "Min SNIR"
bin	-inf	0
bin	0	21
bin	50	0
bin	100	0
bin	150	0
bin	200	0
bin	250	0
bin	300	0
bin	350	0
bin	400	0
bin	450	0
bin	500	0
bin	550	0
bin	600	0
bin	650	0
bin	700	0
bin	750	0
bin	800	0
bin	850	0
bin	900	0
bin	950	0
bin	1000	0
bin	1050	0
bin	1100	0
bin	1150	0
bin	1200	0
bin	1250	0
bin	1300	0
bin	1350	0
bin	1400	0
bin	1450	0
bin	1500	0
bin	1550	0
bin	1600	0
bin	1650	0
bin	1700	0
bin	1750	0
bin	1800	0
bin	1850	0
bin	1900	0
bin	1950	0
bin	2000	0
bin	2050	363
bin	2100	0
bin	2150	0
bin	2200	0
bin	2250	0
bin	2300	0
bin	2350	0
bin	2400	0
bin	2450	0
bin	2500	0
bin	2550	0
bin	2600	0
bin	2650	0
bin	2700	0
bin	2750	0
bin	2800	0
bin	2850	0
bin	2900	0
bin	2950	1099
bin	3000	0
bin	3050	0
bin	3100	0
bin	3150	0
bin	3200	0
bin	3250	0
bin	3300	0
bin	3350	0
bin	3400	0
bin	3450	0
bin	3500	0
bin	3550	358
bin	3600	0
bin	3650	0
bin	3700	0
bin	3750	0
bin	3800	0
bin	3850	0
bin	3900	0
bin	3950	0
bin	4000	0
bin	4050	0
bin	4100	0
bin	4150	0
bin	4200	0
bin	4250	0
bin	4300	0
bin	4350	0
bin	4400	0
bin	4450	0
bin	4500	0
statistic Throughput.cliHost[1].wlan.radio packetErrorRate:histogram
field count 1841
field mean 0.011406844106464
field stddev 0.10622079208198
field min 0
field max 1
field sum 21
field sqrsum 21
attr recordingmode histogram
attr source packetErrorRate(packetSentToUpper)
attr title "Packet error rate"
bin	-inf	0
bin	0	1820
bin	1	21
bin	2	0
statistic Throughput.cliHost[1].wlan.radio bitErrorRate:histogram
field count 0
field mean -nan
field stddev nan
field min nan
field max nan
field sum 0
field sqrsum 0
attr recordingmode histogram
attr source bitErrorRate(packetSentToUpper)
attr title "Bit error rate"
bin	-inf	0
bin	0	0
bin	1	0
statistic Throughput.cliHost[1].wlan.radio symbolErrorRate:histogram
field count 0
field mean -nan
field stddev nan
field min nan
field max nan
field sum 0
field sqrsum 0
attr recordingmode histogram
attr source symbolErrorRate(packetSentToUpper)
attr title "Symbol error rate"
bin	-inf	0
bin	0	0
bin	1	0
scalar Throughput.cliHost[1].wlan packetDropInterfaceDown:count 0
attr interpolationmode none
attr recordingmode count
attr source packetDropReasonIsInterfaceDown(packetDropped)
attr title "packet drops: interface down, count"
scalar Throughput.cliHost[1].wlan packetDropInterfaceDown:sum(packetBytes) 0
attr interpolationmode none
attr recordingmode sum(packetBytes)
attr source packetDropReasonIsInterfaceDown(packetDropped)
attr title "packet drops: interface down, sum(packetBytes)"
scalar Throughput.cliHost[1].wlan packetDropNoCarrier:count 0
attr interpolationmode none
attr recordingmode count
attr source packetDropReasonIsNoCarrier(packetDropped)
attr title "packet drops: no carrier, count"
scalar Throughput.cliHost[1].wlan packetDropNoCarrier:sum(packetBytes) 0
attr interpolationmode none
attr recordingmode sum(packetBytes)
attr source packetDropReasonIsNoCarrier(packetDropped)
attr title "packet drops: no carrier, sum(packetBytes)"
scalar Throughput.cliHost[2].cli packetReceived:count 0
attr interpolationmode none
attr recordingmode count
attr source packetReceived
attr title "packets received, count"
scalar Throughput.cliHost[2].cli packetReceived:sum(packetBytes) 0
attr interpolationmode none
attr recordingmode sum(packetBytes)
attr source packetReceived
attr title "packets received, sum(packetBytes)"
statistic Throughput.cliHost[2].cli endToEndDelay:histogram
field count 0
field mean -nan
field stddev nan
field min nan
field max nan
field sum 0
field sqrsum 0
attr interpolationmode none
attr recordingmode histogram
attr source dataAge(packetReceived)
attr title "end-to-end delay"
attr unit s
bin	-inf	0
bin	0	0
bin	1	0
scalar Throughput.cliHost[2].cli packetSent:count 20000
attr interpolationmode none
attr recordingmode count
attr source packetSent
attr title "packets sent, count"
scalar Throughput.cliHost[2].cli packetSent:sum(packetBytes) 20000000
attr interpolationmode none
attr recordingmode sum(packetBytes)
attr source packetSent
attr title "packets sent, sum(packetBytes)"
scalar Throughput.cliHost[2].wlan.mac.dcf.channelAccess.pendingQueue queueLength:last 100
attr autoWarmupFilter false
attr interpolationmode sample-hold
attr recordingmode last
attr source "warmup(atomic(constant0(packetPushEnded) + count(packetPushStarted) - count(packetPulled) - count(packetRemoved) - count(packetDropped)))"
attr title "queue length, last"
attr unit pk
scalar Throughput.cliHost[2].wlan.mac.dcf.channelAccess.pendingQueue queueLength:max 100
attr autoWarmupFilter false
attr interpolationmode sample-hold
attr recordingmode max
attr source "warmup(atomic(constant0(packetPushEnded) + count(packetPushStarted) - count(packetPulled) - count(packetRemoved) - count(packetDropped)))"
attr title "queue length, max"
attr unit pk
scalar Throughput.cliHost[2].wlan.mac.dcf.channelAccess.pendingQueue queueLength:timeavg 99.737990757443
attr autoWarmupFilter false
attr interpolationmode sample-hold
attr recordingmode timeavg
attr source "warmup(atomic(constant0(packetPushEnded) + count(packetPushStarted) - count(packetPulled) - count(packetRemoved) - count(packetDropped)))"
attr title "queue length, timeavg"
attr unit pk
scalar Throughput.cliHost[2].wlan.mac.dcf.channelAccess.pendingQueue queueBitLength:last 824800
attr autoWarmupFilter false
attr interpolationmode sample-hold
attr recordingmode last
attr source "warmup(atomic(constant0(packetPushEnded) + sum(packetLength(packetPushStarted)) - sum(packetLength(packetPulled)) - sum(packetLength(packetRemoved)) - sum(packetLength(packetDropped))))"
attr title "queue bit length, last"
attr unit b
scalar Throughput.cliHost[2].wlan.mac.dcf.channelAccess.pendingQueue queueBitLength:max 824800
attr autoWarmupFilter false
attr interpolationmode sample-hold
attr recordingmode max
attr source "warmup(atomic(constant0(packetPushEnded) + sum(packetLength(packetPushStarted)) - sum(packetLength(packetPulled)) - sum(packetLength(packetRemoved)) - sum(packetLength(packetDropped))))"
attr title "queue bit length, max"
attr unit b
scalar Throughput.cliHost[2].wlan.mac.dcf.channelAccess.pendingQueue queueBitLength:timeavg 822638.94776798
attr autoWarmupFilter false
attr interpolationmode sample-hold
attr recordingmode timeavg
attr source "warmup(atomic(constant0(packetPushEnded) + sum(packetLength(packetPushStarted)) - sum(packetLength(packetPulled)) - sum(packetLength(packetRemoved)) - sum(packetLength(packetDropped))))"
attr title "queue bit length, timeavg"
attr unit b
statistic Throughput.cliHost[2].wlan.mac.dcf.channelAccess.pendingQueue queueingTime:histogram
field count 377
field mean 2.3011247707677
field stddev 0.73091405983479
field min 0
field max 2.917045666458
field sum 867.52403857941
field sqrsum 2197.1535508484
attr interpolationmode none
attr recordingmode histogram
attr source queueingTime(packetPulled)
attr title "queueing times"
attr unit s
bin	-inf	0
bin	0	1
bin	0.05	2
bin	0.1	2
bin	0.15	1
bin	0.2	2
bin	0.25	2
bin	0.3	1
bin	0.35	2
bin	0.4	2
bin	0.45	2
bin	0.5	2
bin	0.55	3
bin	0.6	3
bin	0.65	1
bin	0.7	2
bin	0.75	2
bin	0.8	4
bin	0.85	0
bin	0.9	2
bin	0.95	3
bin	1	4
bin	1.05	2
bin	1.1	1
bin	1.15	4
bin	1.2	2
bin	1.25	1
bin	1.3	1
bin	1.35	2
bin	1.4	2
bin	1.45	1
bin	1.5	1
bin	1.55	4
bin	1.6	2
bin	1.65	2
bin	1.7	3
bin	1.75	3
bin	1.8	1
bin	1.85	2
bin	1.9	2
bin	1.95	2
bin	2	2
bin	2.05	3
bin	2.1	3
bin	2.15	2
bin	2.2	3
bin	2.25	3
bin	2.3	2
bin	2.35	1
bin	2.4	11
bin	2.45	23
bin	2.5	22
bin	2.55	25
bin	2.6	23
bin	2.65	26
bin	2.7	47
bin	2.75	52
bin	2.8	31
bin	2.85	15
bin	2.9	2
bin	2.95	0
bin	3	0
bin	3.05	0
bin	3.1	0
bin	3.15	0
bin	3.2	0
bin	3.25	0
bin	3.3	0
bin	3.35	0
bin	3.4	0
bin	3.45	0
bin	3.5	0
bin	3.55	0
bin	3.6	0
bin	3.65	0
scalar Throughput.cliHost[2].wlan.mac.dcf.channelAccess.pendingQueue outgoingPackets:count 377
attr recordingmode count
attr source packetPulled
attr title "outgoing packets, count"
attr unit pk
scalar Throughput.cliHost[2].wlan.mac.dcf.channelAccess.pendingQueue outgoingPacketLengths:sum 3109496
attr interpolationmode none
attr recordingmode sum
attr source packetLength(packetPulled)
attr title "outgoing packet lengths, sum"
attr unit b
statistic Throughput.cliHost[2].wlan.mac.dcf.channelAccess.pendingQueue outgoingPacketLengths:histogram
field count 377
field mean 8248
field stddev 0
field min 8248
field max 8248
field sum 3109496
field sqrsum 25647123008
attr interpolationmode none
attr recordingmode histogram
attr source packetLength(packetPulled)
attr title "outgoing packet lengths"
attr unit b
bin	-inf	0
bin	8247	0
bin	8248	377
bin	8249	0
statistic Throughput.cliHost[2].wlan.mac.dcf.channelAccess.pendingQueue flowQueueingTime:histogram
field count 0
field mean -nan
field stddev nan
field min nan
field max nan
field sum 0
field sqrsum 0
attr interpolationmode none
attr recordingmode histogram
attr source queueingTime(demuxFlow(packetPulled))
attr title "flow queueing times"
attr unit s
bin	-inf	0
bin	0	0
bin	1	0
scalar Throughput.cliHost[2].wlan.mac.dcf.channelAccess.pendingQueue incomingPackets:count 20000
attr recordingmode count
attr source packetPushStarted
attr title "incoming packets, count"
attr unit pk
scalar Throughput.cliHost[2].wlan.mac.dcf.channelAccess.pendingQueue incomingPacketLengths:sum 164960000
attr interpolationmode none
attr recordingmode sum
attr source packetLength(packetPushStarted)
attr title "incoming packet lengths, sum"
attr unit b
statistic Throughput.cliHost[2].wlan.mac.dcf.channelAccess.pendingQueue incomingPacketLengths:histogram
field count 20000
field mean 8248
field stddev 0
field min 8248
field max 8248
field sum 164960000
field sqrsum 1360590080000
attr interpolationmode none
attr recordingmode histogram
attr source packetLength(packetPushStarted)
attr title "incoming packet lengths"
attr unit b
bin	-inf	0
bin	8247	0
bin	8248	20000
bin	8249	0
scalar Throughput.cliHost[2].wlan.mac.dcf.channelAccess.pendingQueue droppedPacketsQueueOverflow:count 19523
attr interpolationmode none
attr recordingmode count
attr source packetDropReasonIsQueueOverflow(packetDropped)
attr title "dropped packets: queue overflow, count"
attr unit pk
scalar Throughput.cliHost[2].wlan.mac.dcf.channelAccess.pendingQueue droppedPacketLengthsQueueOverflow:sum 161025704
attr interpolationmode none
attr recordingmode sum
attr source packetLength(packetDropReasonIsQueueOverflow(packetDropped))
attr title "dropped packet lengths: queue overflow, sum"
attr unit b
statistic Throughput.cliHost[2].wlan.mac.dcf.channelAccess.inProgressFrames queueingTime:histogram
field count 376
field mean 0.03713707409909
field stddev 0.019549396537895
field min 0.017558633392
field max 0.133764296268
field sum 13.963539861258
field sqrsum 0.66188210388659
attr interpolationmode none
attr recordingmode histogram
attr source queueingTime(packetDequeued)
attr title "queueing times"
bin	-inf	0
bin	0	0
bin	0.002	0
bin	0.004	0
bin	0.006	0
bin	0.008	0
bin	0.01	0
bin	0.012	0
bin	0.014	0
bin	0.016	86
bin	0.018	0
bin	0.02	0
bin	0.022	0
bin	0.024	0
bin	0.026	88
bin	0.028	0
bin	0.03	0
bin	0.032	0
bin	0.034	78
bin	0.036	0
bin	0.038	0
bin	0.04	0
bin	0.042	0
bin	0.044	48
bin	0.046	0
bin	0.048	0
bin	0.05	0
bin	0.052	27
bin	0.054	0
bin	0.056	0
bin	0.058	0
bin	0.06	3
bin	0.062	16
bin	0.064	0
bin	0.066	0
bin	0.068	0
bin	0.07	11
bin	0.072	0
bin	0.074	0
bin	0.076	0
bin	0.078	3
bin	0.08	3
bin	0.082	0
bin	0.084	0
bin	0.086	0
bin	0.088	5
bin	0.09	0
bin	0.092	0
bin	0.094	0
bin	0.096	1
bin	0.098	4
bin	0.1	0
bin	0.102	0
bin	0.104	0
bin	0.106	0
bin	0.108	0
bin	0.11	0
bin	0.112	0
bin	0.114	1
bin	0.116	0
bin	0.118	0
bin	0.12	0
bin	0.122	0
bin	0.124	1
bin	0.126	0
bin	0.128	0
bin	0.13	0
bin	0.132	1
bin	0.134	0
scalar Throughput.cliHost[2].wlan.mac.dcf.channelAccess.inProgressFrames queueLength:max 2
attr autoWarmupFilter false
attr interpolationmode sample-hold
attr recordingmode max
attr source "warmup(count(packetEnqueued) - count(packetDequeued))"
attr title "queue length, max"
scalar Throughput.cliHost[2].wlan.mac.dcf.channelAccess.inProgressFrames queueLength:timeavg 1.3982047123528
attr autoWarmupFilter false
attr interpolationmode sample-hold
attr recordingmode timeavg
attr source "warmup(count(packetEnqueued) - count(packetDequeued))"
attr title "queue length, timeavg"
scalar Throughput.cliHost[2].wlan.mac.dcf.channelAccess.contention channelAccessGranted:count 398
attr recordingmode count
attr title "channel access granted, count"
scalar Throughput.cliHost[2].wlan.mac.dcf.channelAccess.contention stateChanged:count 8878
attr enum IDLE,DEFER,IFS_AND_BACKOFF
attr interpolationmode none
attr recordingmode count
attr title "contention state changed, count"
attr type enum
scalar Throughput.cliHost[2].wlan.mac.dcf.channelAccess channelOwnershipChanged:count 796
attr interpolationmode sample-hold
attr recordingmode count
attr title "channel ownership, count"
scalar Throughput.cliHost[2].wlan.mac.dcf.originatorMacDataService packetAggregated:count 0
attr recordingmode count
attr title "packets aggregated, count"
scalar Throughput.cliHost[2].wlan.mac.dcf.originatorMacDataService packetFragmented:count 0
attr recordingmode count
attr title "packets fragmented, count"
scalar Throughput.cliHost[2].wlan.mac.dcf.recipientMacDataService packetDeaggregated:count 0
attr recordingmode count
attr title "packets deaggregated, count"
scalar Throughput.cliHost[2].wlan.mac.dcf.recipientMacDataService packetDefragmented:count 0
attr recordingmode count
attr title "packets defragmented, count"
scalar Throughput.cliHost[2].wlan.mac.dcf.recipientMacDataService packetDropDuplicateDetected:count 0
attr interpolationmode none
attr recordingmode count
attr source packetDropReasonIsDuplicateDetected(packetDropped)
attr title "packet drops: duplicate detected, count"
scalar Throughput.cliHost[2].wlan.mac.dcf.recipientMacDataService packetDropDuplicateDetected:sum(packetBytes) 0
attr interpolationmode none
attr recordingmode sum(packetBytes)
attr source packetDropReasonIsDuplicateDetected(packetDropped)
attr title "packet drops: duplicate detected, sum(packetBytes)"
scalar Throughput.cliHost[2].wlan.mac.dcf.recoveryProcedure retryLimitReached:count 0
attr recordingmode count
attr title "retry limit reached, count"
scalar Throughput.cliHost[2].wlan.mac.dcf frameSequenceFinished:count 398
attr recordingmode count
attr title "finished frame sequences, count"
statistic Throughput.cliHost[2].wlan.mac.dcf frameSequenceDuration:histogram
field count 398
field mean 0.0087492137630552
field stddev 2.1122665762516e-05
field min 0.008662
field max 0.008754316696
field sum 3.482187077696
field sqrsum 0.030466576234013
attr recordingmode histogram
attr source frameSequenceDuration(frameSequenceFinished)
attr title "frame sequence durations"
bin	-inf	0
bin	0.008638	0
bin	0.00864	0
bin	0.008642	0
bin	0.008644	0
bin	0.008646	0
bin	0.008648	0
bin	0.00865	0
bin	0.008652	0
bin	0.008654	0
bin	0.008656	0
bin	0.008658	0
bin	0.00866	22
bin	0.008662	0
bin	0.008664	0
bin	0.008666	0
bin	0.008668	0
bin	0.00867	0
bin	0.008672	0
bin	0.008674	0
bin	0.008676	0
bin	0.008678	0
bin	0.00868	0
bin	0.008682	0
bin	0.008684	0
bin	0.008686	0
bin	0.008688	0
bin	0.00869	0
bin	0.008692	0
bin	0.008694	0
bin	0.008696	0
bin	0.008698	0
bin	0.0087	0
bin	0.008702	0
bin	0.008704	0
bin	0.008706	0
bin	0.008708	0
bin	0.00871	0
bin	0.008712	0
bin	0.008714	0
bin	0.008716	0
bin	0.008718	0
bin	0.00872	0
bin	0.008722	0
bin	0.008724	0
bin	0.008726	0
bin	0.008728	0
bin	0.00873	0
bin	0.008732	0
bin	0.008734	0
bin	0.008736	0
bin	0.008738	0
bin	0.00874	0
bin	0.008742	0
bin	0.008744	0
bin	0.008746	0
bin	0.008748	0
bin	0.00875	0
bin	0.008752	0
bin	0.008754	376
bin	0.008756	0
bin	0.008758	0
bin	0.00876	0
bin	0.008762	0
bin	0.008764	0
bin	0.008766	0
bin	0.008768	0
bin	0.00877	0
bin	0.008772	0
bin	0.008774	0
bin	0.008776	0
bin	0.008778	0
statistic Throughput.cliHost[2].wlan.mac.dcf frameSequenceNumPackets:histogram
field count 398
field mean 2
field stddev 0
field min 2
field max 2
field sum 796
field sqrsum 1592
attr recordingmode histogram
attr source frameSequenceNumPackets(frameSequenceFinished)
attr title "frame sequences: number of packets"
bin	-inf	0
bin	1	0
bin	2	398
bin	3	0
scalar Throughput.cliHost[2].wlan.mac.dcf packetReceivedFromPeer:count 376
attr interpolationmode none
attr recordingmode count
attr title "packets received, count"
scalar Throughput.cliHost[2].wlan.mac.dcf packetReceivedFromPeer:sum(packetBytes) 5264
attr interpolationmode none
attr recordingmode sum(packetBytes)
attr title "packets received, sum(packetBytes)"
scalar Throughput.cliHost[2].wlan.mac.dcf packetReceivedFromPeerUnicast:count 376
attr interpolationmode none
attr recordingmode count
attr source ieee80211Unicast(packetReceivedFromPeer)
attr title "packets received: unicast, count"
scalar Throughput.cliHost[2].wlan.mac.dcf packetReceivedFromPeerUnicast:sum(packetBytes) 5264
attr interpolationmode none
attr recordingmode sum(packetBytes)
attr source ieee80211Unicast(packetReceivedFromPeer)
attr title "packets received: unicast, sum(packetBytes)"
scalar Throughput.cliHost[2].wlan.mac.dcf packetReceivedFromPeerMulticast:count 0
attr interpolationmode none
attr recordingmode count
attr source ieee80211Multicast(packetReceivedFromPeer)
attr title "packets received: multicast, count"
scalar Throughput.cliHost[2].wlan.mac.dcf packetReceivedFromPeerMulticast:sum(packetBytes) 0
attr interpolationmode none
attr recordingmode sum(packetBytes)
attr source ieee80211Multicast(packetReceivedFromPeer)
attr title "packets received: multicast, sum(packetBytes)"
scalar Throughput.cliHost[2].wlan.mac.dcf packetReceivedFromPeerBroadcast:count 0
attr interpolationmode none
attr recordingmode count
attr source ieee80211Broadcast(packetReceivedFromPeer)
attr title "packets received: broadcast, count"
scalar Throughput.cliHost[2].wlan.mac.dcf packetReceivedFromPeerBroadcast:sum(packetBytes) 0
attr interpolationmode none
attr recordingmode sum(packetBytes)
attr source ieee80211Broadcast(packetReceivedFromPeer)
attr title "packets received: broadcast, sum(packetBytes)"
scalar Throughput.cliHost[2].wlan.mac.dcf packetReceivedFromPeerWithRetry:count 0
attr interpolationmode none
attr recordingmode count
attr source ieee80211Retry(packetReceivedFromPeer)
attr title "packets received: with retry, count"
[...]
attr recordingmode count
attr title "channel access granted, count"
scalar Throughput.ap.wlan.mac.dcf.channelAccess.contention stateChanged:count 8928
attr enum IDLE,DEFER,IFS_AND_BACKOFF
attr interpolationmode none
attr recordingmode count
attr title "contention state changed, count"
attr type enum
scalar Throughput.ap.wlan.mac.dcf.channelAccess channelOwnershipChanged:count 0
attr interpolationmode sample-hold
attr recordingmode count
attr title "channel ownership, count"
scalar Throughput.ap.wlan.mac.dcf.originatorMacDataService packetAggregated:count 0
attr recordingmode count
attr title "packets aggregated, count"
scalar Throughput.ap.wlan.mac.dcf.originatorMacDataService packetFragmented:count 0
attr recordingmode count
attr title "packets fragmented, count"
scalar Throughput.ap.wlan.mac.dcf.recipientMacDataService packetDeaggregated:count 0
attr recordingmode count
attr title "packets deaggregated, count"
scalar Throughput.ap.wlan.mac.dcf.recipientMacDataService packetDefragmented:count 1099
attr recordingmode count
attr title "packets defragmented, count"
scalar Throughput.ap.wlan.mac.dcf.recipientMacDataService packetDropDuplicateDetected:count 0
attr interpolationmode none
attr recordingmode count
attr source packetDropReasonIsDuplicateDetected(packetDropped)
attr title "packet drops: duplicate detected, count"
scalar Throughput.ap.wlan.mac.dcf.recipientMacDataService packetDropDuplicateDetected:sum(packetBytes) 0
attr interpolationmode none
attr recordingmode sum(packetBytes)
attr source packetDropReasonIsDuplicateDetected(packetDropped)
attr title "packet drops: duplicate detected, sum(packetBytes)"
scalar Throughput.ap.wlan.mac.dcf.recoveryProcedure retryLimitReached:count 0
attr recordingmode count
attr title "retry limit reached, count"
scalar Throughput.ap.wlan.mac.dcf frameSequenceFinished:count 0
attr recordingmode count
attr title "finished frame sequences, count"
statistic Throughput.ap.wlan.mac.dcf frameSequenceDuration:histogram
field count 0
field mean -nan
field stddev nan
field min nan
field max nan
field sum 0
field sqrsum 0
attr recordingmode histogram
attr source frameSequenceDuration(frameSequenceFinished)
attr title "frame sequence durations"
bin	-inf	0
bin	0	0
bin	1	0
statistic Throughput.ap.wlan.mac.dcf frameSequenceNumPackets:histogram
field count 0
field mean -nan
field stddev nan
field min nan
field max nan
field sum 0
field sqrsum 0
attr recordingmode histogram
attr source frameSequenceNumPackets(frameSequenceFinished)
attr title "frame sequences: number of packets"
bin	-inf	0
bin	0	0
bin	1	0
scalar Throughput.ap.wlan.mac.dcf packetReceivedFromPeer:count 1099
attr interpolationmode none
attr recordingmode count
attr title "packets received, count"
scalar Throughput.ap.wlan.mac.dcf packetReceivedFromPeer:sum(packetBytes) 1133069
attr interpolationmode none
attr recordingmode sum(packetBytes)
attr title "packets received, sum(packetBytes)"
scalar Throughput.ap.wlan.mac.dcf packetReceivedFromPeerUnicast:count 1099
attr interpolationmode none
attr recordingmode count
attr source ieee80211Unicast(packetReceivedFromPeer)
attr title "packets received: unicast, count"
scalar Throughput.ap.wlan.mac.dcf packetReceivedFromPeerUnicast:sum(packetBytes) 1133069
attr interpolationmode none
attr recordingmode sum(packetBytes)
attr source ieee80211Unicast(packetReceivedFromPeer)
attr title "packets received: unicast, sum(packetBytes)"
scalar Throughput.ap.wlan.mac.dcf packetReceivedFromPeerMulticast:count 0
attr interpolationmode none
attr recordingmode count
attr source ieee80211Multicast(packetReceivedFromPeer)
attr title "packets received: multicast, count"
scalar Throughput.ap.wlan.mac.dcf packetReceivedFromPeerMulticast:sum(packetBytes) 0
attr interpolationmode none
attr recordingmode sum(packetBytes)
attr source ieee80211Multicast(packetReceivedFromPeer)
attr title "packets received: multicast, sum(packetBytes)"
scalar Throughput.ap.wlan.mac.dcf packetReceivedFromPeerBroadcast:count 0
attr interpolationmode none
attr recordingmode count
attr source ieee80211Broadcast(packetReceivedFromPeer)
attr title "packets received: broadcast, count"
scalar Throughput.ap.wlan.mac.dcf packetReceivedFromPeerBroadcast:sum(packetBytes) 0
attr interpolationmode none
attr recordingmode sum(packetBytes)
attr source ieee80211Broadcast(packetReceivedFromPeer)
attr title "packets received: broadcast, sum(packetBytes)"
scalar Throughput.ap.wlan.mac.dcf packetReceivedFromPeerWithRetry:count 85
attr interpolationmode none
attr recordingmode count
attr source ieee80211Retry(packetReceivedFromPeer)
attr title "packets received: with retry, count"
scalar Throughput.ap.wlan.mac.dcf packetReceivedFromPeerWithRetry:sum(packetBytes) 87635
attr interpolationmode none
attr recordingmode sum(packetBytes)
attr source ieee80211Retry(packetReceivedFromPeer)
attr title "packets received: with retry, sum(packetBytes)"
scalar Throughput.ap.wlan.mac.dcf packetReceivedFromPeerWithoutRetry:count 1014
attr interpolationmode none
attr recordingmode count
attr source ieee80211NotRetry(packetReceivedFromPeer)
attr title "packets received: without retry, count"
scalar Throughput.ap.wlan.mac.dcf packetReceivedFromPeerWithoutRetry:sum(packetBytes) 1045434
attr interpolationmode none
attr recordingmode sum(packetBytes)
attr source ieee80211NotRetry(packetReceivedFromPeer)
attr title "packets received: without retry, sum(packetBytes)"
scalar Throughput.ap.wlan.mac.dcf packetSentToPeer:count 1099
attr interpolationmode none
attr recordingmode count
attr title "packets sent, count"
scalar Throughput.ap.wlan.mac.dcf packetSentToPeer:sum(packetBytes) 15386
attr interpolationmode none
attr recordingmode sum(packetBytes)
attr title "packets sent, sum(packetBytes)"
scalar Throughput.ap.wlan.mac.dcf packetSentToPeerUnicast:count 1099
attr interpolationmode none
attr recordingmode count
attr source ieee80211Unicast(packetSentToPeer)
attr title "packets sent: unicast, count"
scalar Throughput.ap.wlan.mac.dcf packetSentToPeerUnicast:sum(packetBytes) 15386
attr interpolationmode none
attr recordingmode sum(packetBytes)
attr source ieee80211Unicast(packetSentToPeer)
attr title "packets sent: unicast, sum(packetBytes)"
scalar Throughput.ap.wlan.mac.dcf packetSentToPeerMulticast:count 0
attr interpolationmode none
attr recordingmode count
attr source ieee80211Multicast(packetSentToPeer)
attr title "packets sent: multicast, count"
scalar Throughput.ap.wlan.mac.dcf packetSentToPeerMulticast:sum(packetBytes) 0
attr interpolationmode none
attr recordingmode sum(packetBytes)
attr source ieee80211Multicast(packetSentToPeer)
attr title "packets sent: multicast, sum(packetBytes)"
scalar Throughput.ap.wlan.mac.dcf packetSentToPeerBroadcast:count 0
attr interpolationmode none
attr recordingmode count
attr source ieee80211Broadcast(packetSentToPeer)
attr title "packets sent: broadcast , count"
scalar Throughput.ap.wlan.mac.dcf packetSentToPeerBroadcast:sum(packetBytes) 0
attr interpolationmode none
attr recordingmode sum(packetBytes)
attr source ieee80211Broadcast(packetSentToPeer)
attr title "packets sent: broadcast , sum(packetBytes)"
scalar Throughput.ap.wlan.mac.dcf packetSentToPeerWithRetry:count 0
attr interpolationmode none
attr recordingmode count
attr source ieee80211Retry(packetSentToPeer)
attr title "packets sent: with retry, count"
scalar Throughput.ap.wlan.mac.dcf packetSentToPeerWithRetry:sum(packetBytes) 0
attr interpolationmode none
attr recordingmode sum(packetBytes)
attr source ieee80211Retry(packetSentToPeer)
attr title "packets sent: with retry, sum(packetBytes)"
scalar Throughput.ap.wlan.mac.dcf packetSentToPeerWithoutRetry:count 1099
attr interpolationmode none
attr recordingmode count
attr source ieee80211NotRetry(packetSentToPeer)
attr title "packets sent: without retry, count"
scalar Throughput.ap.wlan.mac.dcf packetSentToPeerWithoutRetry:sum(packetBytes) 15386
attr interpolationmode none
attr recordingmode sum(packetBytes)
attr source ieee80211NotRetry(packetSentToPeer)
attr title "packets sent: without retry, sum(packetBytes)"
scalar Throughput.ap.wlan.mac.dcf packetDrop:count 0
attr interpolationmode none
attr recordingmode count
attr source packetDropped
attr title "packet drops, count"
scalar Throughput.ap.wlan.mac.dcf packetDrop:sum(packetBytes) 0
attr interpolationmode none
attr recordingmode sum(packetBytes)
attr source packetDropped
attr title "packet drops, sum(packetBytes)"
scalar Throughput.ap.wlan.mac.dcf packetDropNotAddressedToUs:count 0
attr interpolationmode none
attr recordingmode count
attr source packetDropReasonIsNotAddressedToUs(packetDropped)
attr title "packet drops: not addressed to us, count"
scalar Throughput.ap.wlan.mac.dcf packetDropNotAddressedToUs:sum(packetBytes) 0
attr interpolationmode none
attr recordingmode sum(packetBytes)
attr source packetDropReasonIsNotAddressedToUs(packetDropped)
attr title "packet drops: not addressed to us, sum(packetBytes)"
scalar Throughput.ap.wlan.mac.dcf packetDropQueueOverflow:count 0
attr interpolationmode none
attr recordingmode count
attr source packetDropReasonIsQueueOverflow(packetDropped)
attr title "packet drops: queue overflow, count"
scalar Throughput.ap.wlan.mac.dcf packetDropQueueOverflow:sum(packetBytes) 0
attr interpolationmode none
attr recordingmode sum(packetBytes)
attr source packetDropReasonIsQueueOverflow(packetDropped)
attr title "packet drops: queue overflow, sum(packetBytes)"
scalar Throughput.ap.wlan.mac.dcf packetDropRetryLimitReached:count 0
attr interpolationmode none
attr recordingmode count
attr source packetDropReasonIsRetryLimitReached(packetDropped)
attr title "packet drops: retry limit reached, count"
scalar Throughput.ap.wlan.mac.dcf packetDropRetryLimitReached:sum(packetBytes) 0
attr interpolationmode none
attr recordingmode sum(packetBytes)
attr source packetDropReasonIsRetryLimitReached(packetDropped)
attr title "packet drops: retry limit reached, sum(packetBytes)"
scalar Throughput.ap.wlan.mac.dcf linkBroken:count 0
attr interpolationmode none
attr recordingmode count
attr title "link breaks, count"
scalar Throughput.ap.wlan.mac packetReceivedFromLower:count 1121
attr interpolationmode none
attr recordingmode count
attr title "packets received from lower layer, count"
scalar Throughput.ap.wlan.mac packetReceivedFromLower:sum(packetBytes) 1155751
attr interpolationmode none
attr recordingmode sum(packetBytes)
attr title "packets received from lower layer, sum(packetBytes)"
scalar Throughput.ap.wlan.mac packetSentToLower:count 1099
attr interpolationmode none
attr recordingmode count
attr title "packets sent to lower layer, count"
scalar Throughput.ap.wlan.mac packetSentToLower:sum(packetBytes) 15386
attr interpolationmode none
attr recordingmode sum(packetBytes)
attr title "packets sent to lower layer, sum(packetBytes)"
scalar Throughput.ap.wlan.mac packetReceivedFromUpper:count 0
attr interpolationmode none
attr recordingmode count
attr title "packets received from upper layer, count"
scalar Throughput.ap.wlan.mac packetReceivedFromUpper:sum(packetBytes) 0
attr interpolationmode none
attr recordingmode sum(packetBytes)
attr title "packets received from upper layer, sum(packetBytes)"
scalar Throughput.ap.wlan.mac packetSentToUpper:count 1099
attr interpolationmode none
attr recordingmode count
attr title "packets sent to upper layer, count"
scalar Throughput.ap.wlan.mac packetSentToUpper:sum(packetBytes) 1102297
attr interpolationmode none
attr recordingmode sum(packetBytes)
attr title "packets sent to upper layer, sum(packetBytes)"
scalar Throughput.ap.wlan.mac packetDrop:count 22
attr interpolationmode none
attr recordingmode count
attr source packetDropped
attr title "packet drops, count"
scalar Throughput.ap.wlan.mac packetDrop:sum(packetBytes) 22682
attr interpolationmode none
attr recordingmode sum(packetBytes)
attr source packetDropped
attr title "packet drops, sum(packetBytes)"
scalar Throughput.ap.wlan.mac packetDropIncorrectlyReceived:count 22
attr interpolationmode none
attr recordingmode count
attr source packetDropReasonIsIncorrectlyReceived(packetDropped)
attr title "packet drops: incorrectly received, count"
scalar Throughput.ap.wlan.mac packetDropIncorrectlyReceived:sum(packetBytes) 22682
attr interpolationmode none
attr recordingmode sum(packetBytes)
attr source packetDropReasonIsIncorrectlyReceived(packetDropped)
attr title "packet drops: incorrectly received, sum(packetBytes)"
scalar Throughput.ap.wlan.mac packetDropNotAddressedToUs:count 0
attr interpolationmode none
attr recordingmode count
attr source packetDropReasonIsNotAddressedToUs(packetDropped)
attr title "packet drops: not addressed to us, count"
scalar Throughput.ap.wlan.mac packetDropNotAddressedToUs:sum(packetBytes) 0
attr interpolationmode none
attr recordingmode sum(packetBytes)
attr source packetDropReasonIsNotAddressedToUs(packetDropped)
attr title "packet drops: not addressed to us, sum(packetBytes)"
scalar Throughput.ap.wlan.mac packetDropQueueOverflow:count 0
attr interpolationmode none
attr recordingmode count
attr source packetDropReasonIsQueueOverflow(packetDropped)
attr title "packet drops: queue overflow, count"
scalar Throughput.ap.wlan.mac packetDropQueueOverflow:sum(packetBytes) 0
attr interpolationmode none
attr recordingmode sum(packetBytes)
attr source packetDropReasonIsQueueOverflow(packetDropped)
attr title "packet drops: queue overflow, sum(packetBytes)"
scalar Throughput.ap.wlan.mac packetDropRetryLimitReached:count 0
attr interpolationmode none
attr recordingmode count
attr source packetDropReasonIsRetryLimitReached(packetDropped)
attr title "packet drops: retry limit reached, count"
scalar Throughput.ap.wlan.mac packetDropRetryLimitReached:sum(packetBytes) 0
attr interpolationmode none
attr recordingmode sum(packetBytes)
attr source packetDropReasonIsRetryLimitReached(packetDropped)
attr title "packet drops: retry limit reached, sum(packetBytes)"
scalar Throughput.ap.wlan.mac packetDropDuplicateDetected:count 0
attr interpolationmode none
attr recordingmode count
attr source packetDropReasonIsDuplicateDetected(packetDropped)
attr title "packet drops: duplicate detected, count"
scalar Throughput.ap.wlan.mac packetDropDuplicateDetected:sum(packetBytes) 0
attr interpolationmode none
attr recordingmode sum(packetBytes)
attr source packetDropReasonIsDuplicateDetected(packetDropped)
attr title "packet drops: duplicate detected, sum(packetBytes)"
scalar Throughput.ap.wlan.mac packetDropOther:count 0
attr interpolationmode none
attr recordingmode count
attr source packetDropReasonIsOther(packetDropped)
attr title "packet drops: other, count"
scalar Throughput.ap.wlan.mac packetDropOther:sum(packetBytes) 0
attr interpolationmode none
attr recordingmode sum(packetBytes)
attr source packetDropReasonIsOther(packetDropped)
attr title "packet drops: other, sum(packetBytes)"
scalar Throughput.ap.wlan.mac linkBroken:count 0
attr interpolationmode none
attr recordingmode count
attr title "link breaks, count"
statistic Throughput.ap.wlan.radio radioChannel:histogram
field count 1
field mean 0
field stddev nan
field min 0
field max 0
field sum 0
field sqrsum 0
attr interpolationmode sample-hold
attr recordingmode histogram
attr source radioChannelChanged
attr title "Radio channel"
bin	-inf	0
bin	-0.5	0
bin	-0.48	0
bin	-0.46	0
bin	-0.44	0
bin	-0.42	0
bin	-0.4	0
bin	-0.38	0
bin	-0.36	0
bin	-0.34	0
bin	-0.32	0
bin	-0.3	0
bin	-0.28	0
bin	-0.26	0
bin	-0.24	0
bin	-0.22	0
bin	-0.2	0
bin	-0.18	0
bin	-0.16	0
bin	-0.14	0
bin	-0.12	0
bin	-0.1	0
bin	-0.08	0
bin	-0.06	0
bin	-0.04	0
bin	-0.02	0
bin	0	1
bin	0.02	0
bin	0.04	0
bin	0.06	0
bin	0.08	0
bin	0.1	0
bin	0.12	0
bin	0.14	0
bin	0.16	0
bin	0.18	0
bin	0.2	0
bin	0.22	0
bin	0.24	0
bin	0.26	0
bin	0.28	0
bin	0.3	0
bin	0.32	0
bin	0.34	0
bin	0.36	0
bin	0.38	0
bin	0.4	0
bin	0.42	0
bin	0.44	0
bin	0.46	0
bin	0.48	0
bin	0.5	0
scalar Throughput.ap.wlan.radio radioMode:count 2201
attr interpolationmode sample-hold
attr recordingmode count
attr source radioModeChanged
attr title "Radio mode, count"
scalar Throughput.ap.wlan.radio receptionState:count 4506
attr interpolationmode sample-hold
attr recordingmode count
attr source receptionStateChanged
attr title "Radio reception state, count"
scalar Throughput.ap.wlan.radio transmissionState:count 4396
attr interpolationmode sample-hold
attr recordingmode count
attr source transmissionStateChanged
attr title "Radio transmission state, count"
statistic Throughput.ap.wlan.radio minSnir:histogram
field count 1121
field mean 37440.37050299
field stddev 35350.145217513
field min 2.8734136079438
field max 86821.777975423
field sum 41970655.333851
field sqrsum 2970985584879.8
attr recordingmode histogram
attr source minimumSnir(packetSentToUpper)
attr title "Min SNIR"
bin	-inf	0
bin	0	64
bin	2000	336
bin	4000	0
bin	6000	0
bin	8000	0
bin	10000	0
bin	12000	0
bin	14000	0
bin	16000	0
bin	18000	0
bin	20000	0
bin	22000	0
bin	24000	0
bin	26000	363
bin	28000	0
bin	30000	0
bin	32000	0
bin	34000	0
bin	36000	0
bin	38000	0
bin	40000	0
bin	42000	0
bin	44000	0
bin	46000	0
bin	48000	0
bin	50000	0
bin	52000	0
bin	54000	0
bin	56000	0
bin	58000	0
bin	60000	0
bin	62000	0
bin	64000	0
bin	66000	0
bin	68000	0
bin	70000	0
bin	72000	0
bin	74000	0
bin	76000	0
bin	78000	0
bin	80000	0
bin	82000	0
bin	84000	0
bin	86000	358
bin	88000	0
bin	90000	0
bin	92000	0
bin	94000	0
bin	96000	0
bin	98000	0
bin	100000	0
bin	102000	0
bin	104000	0
bin	106000	0
bin	108000	0
bin	110000	0
statistic Throughput.ap.wlan.radio packetErrorRate:histogram
field count 1121
field mean 0.019610519082872
field stddev 0.13865910313596
field min 0
field max 0.99999824792885
field sum 21.9833918919
field sqrsum 21.964614234569
attr recordingmode histogram
attr source packetErrorRate(packetSentToUpper)
attr title "Packet error rate"
bin	-inf	0
bin	0	1099
bin	0.02	0
bin	0.04	0
bin	0.06	0
bin	0.08	0
bin	0.1	0
bin	0.12	0
bin	0.14	0
bin	0.16	0
bin	0.18	0
bin	0.2	0
bin	0.22	0
bin	0.24	0
bin	0.26	0
bin	0.28	0
bin	0.3	0
bin	0.32	0
bin	0.34	0
bin	0.36	0
bin	0.38	0
bin	0.4	0
bin	0.42	0
bin	0.44	0
bin	0.46	0
bin	0.48	0
bin	0.5	0
bin	0.52	0
bin	0.54	0
bin	0.56	0
bin	0.58	0
bin	0.6	0
bin	0.62	0
bin	0.64	0
bin	0.66	0
bin	0.68	0
bin	0.7	0
bin	0.72	0
bin	0.74	0
bin	0.76	0
bin	0.78	0
bin	0.8	0
bin	0.82	0
bin	0.84	0
bin	0.86	0
bin	0.88	0
bin	0.9	0
bin	0.92	0
bin	0.94	0
bin	0.96	0
bin	0.98	22
bin	1	0
bin	1.02	0
bin	1.04	0
bin	1.06	0
bin	1.08	0
bin	1.1	0
bin	1.12	0
bin	1.14	0
bin	1.16	0
bin	1.18	0
bin	1.2	0
bin	1.22	0
bin	1.24	0
bin	1.26	0
statistic Throughput.ap.wlan.radio bitErrorRate:histogram
field count 0
field mean -nan
field stddev nan
field min nan
field max nan
field sum 0
field sqrsum 0
attr recordingmode histogram
attr source bitErrorRate(packetSentToUpper)
attr title "Bit error rate"
bin	-inf	0
bin	0	0
bin	1	0
statistic Throughput.ap.wlan.radio symbolErrorRate:histogram
field count 0
field mean -nan
field stddev nan
field min nan
field max nan
field sum 0
field sqrsum 0
attr recordingmode histogram
attr source symbolErrorRate(packetSentToUpper)
attr title "Symbol error rate"
bin	-inf	0
bin	0	0
bin	1	0
scalar Throughput.ap.wlan packetDropInterfaceDown:count 0
attr interpolationmode none
attr recordingmode count
attr source packetDropReasonIsInterfaceDown(packetDropped)
attr title "packet drops: interface down, count"
scalar Throughput.ap.wlan packetDropInterfaceDown:sum(packetBytes) 0
attr interpolationmode none
attr recordingmode sum(packetBytes)
attr source packetDropReasonIsInterfaceDown(packetDropped)
attr title "packet drops: interface down, sum(packetBytes)"
scalar Throughput.ap.wlan packetDropNoCarrier:count 0
attr interpolationmode none
attr recordingmode count
attr source packetDropReasonIsNoCarrier(packetDropped)
attr title "packet drops: no carrier, count"
scalar Throughput.ap.wlan packetDropNoCarrier:sum(packetBytes) 0
attr interpolationmode none
attr recordingmode sum(packetBytes)
attr source packetDropReasonIsNoCarrier(packetDropped)
attr title "packet drops: no carrier, sum(packetBytes)"

