version 3
run DisableNode-0-20251118-11:43:04-110408
attr configname DisableNode
attr datetime 20251118-11:43:04
attr datetimef 20251118-114304
attr experiment DisableNode
attr inifile omnetpp.ini
attr iterationvars ""
attr iterationvarsd ""
attr iterationvarsf ""
attr measurement ""
attr network SimpleConfiguratorNetwork
attr processid 110408
attr repetition 0
attr replication #0
attr resultdir results
attr runnumber 0
attr seedset 0
config **.param-recording false
config image-path /home/zoli/Projects/OMNET/inet/images
config output-scalar-file results/omnetpp.ini-DisableNode-#0.sca
config output-scalar-precision 17
config output-vector-file results/omnetpp.ini-DisableNode-#0.vec
config output-vector-precision 17
config record-eventlog false
config sim-time-limit 10s
config sim-time-limit 10s
config description "Disable a node when computing routes"
config **.configurator.config "xml(\"<config><interface hosts='**' address='10.x.x.x' netmask='255.x.x.x'/><autoroute><node hosts='host21' cost='infinite'/></autoroute></config>\")"
config network SimpleConfiguratorNetwork
config **.arp.typename GlobalArp
config **.forwarding true
config **.routingTable.netmaskRoutes "\"\""
config **.configurator.addSubnetRoutes false
config **.configurator.addDefaultRoutes false
config **.configurator.optimizeRoutes false
config **.numApps 1
config **.app[*].typename PingApp
config **.app[*].destAddr "\"*\""
config **.app[*].count 1
config **.app[*].startTime 0s
config **.app[*].sleepDuration 0s
config **.app[*].printPing true

scalar SimpleConfiguratorNetwork.host11.ethernet pauseSent:count 0
scalar SimpleConfiguratorNetwork.host11.ethernet pauseSent:sum 0
scalar SimpleConfiguratorNetwork.host11.ethernet decapPk:count 20
scalar SimpleConfiguratorNetwork.host11.ethernet decapPk:sum(packetBytes) 1680
scalar SimpleConfiguratorNetwork.host11.ethernet encapPk:count 20
scalar SimpleConfiguratorNetwork.host11.ethernet encapPk:sum(packetBytes) 1680
scalar SimpleConfiguratorNetwork.host11.lo[0].lo rcvdPkFromHl:count 4
scalar SimpleConfiguratorNetwork.host11.lo[0].lo rcvdPkFromHl:sum(packetBytes) 336
scalar SimpleConfiguratorNetwork.host11.lo[0].lo passedUpPk:count 4
scalar SimpleConfiguratorNetwork.host11.lo[0].lo passedUpPk:sum(packetBytes) 336
scalar SimpleConfiguratorNetwork.host11.lo[0] packetDropInterfaceDown:count 0
scalar SimpleConfiguratorNetwork.host11.lo[0] packetDropInterfaceDown:sum(packetBytes) 0
scalar SimpleConfiguratorNetwork.host11.lo[0] packetDropNoCarrier:count 0
scalar SimpleConfiguratorNetwork.host11.lo[0] packetDropNoCarrier:sum(packetBytes) 0
scalar SimpleConfiguratorNetwork.host11.eth[0].queue queueLength:last 0
scalar SimpleConfiguratorNetwork.host11.eth[0].queue queueLength:max 1
scalar SimpleConfiguratorNetwork.host11.eth[0].queue queueLength:timeavg 9.1999999999999997e-09
scalar SimpleConfiguratorNetwork.host11.eth[0].queue queueBitLength:last 0
scalar SimpleConfiguratorNetwork.host11.eth[0].queue queueBitLength:max 816
scalar SimpleConfiguratorNetwork.host11.eth[0].queue queueBitLength:timeavg 7.5071999999999999e-06
scalar SimpleConfiguratorNetwork.host11.eth[0].queue outgoingPackets:count 8
scalar SimpleConfiguratorNetwork.host11.eth[0].queue outgoingPacketLengths:sum 6528
scalar SimpleConfiguratorNetwork.host11.eth[0].queue incomingPackets:count 8
scalar SimpleConfiguratorNetwork.host11.eth[0].queue incomingPacketLengths:sum 6528
scalar SimpleConfiguratorNetwork.host11.eth[0].queue droppedPacketsQueueOverflow:count 0
scalar SimpleConfiguratorNetwork.host11.eth[0].queue droppedPacketLengthsQueueOverflow:sum 0
scalar SimpleConfiguratorNetwork.host11.eth[0].mac "simulated time" 10
scalar SimpleConfiguratorNetwork.host11.eth[0].mac full-duplex 1
scalar SimpleConfiguratorNetwork.host11.eth[0].mac "frames/sec sent" 0.80000000000000004
scalar SimpleConfiguratorNetwork.host11.eth[0].mac "frames/sec rcvd" 0.80000000000000004
scalar SimpleConfiguratorNetwork.host11.eth[0].mac "bits/sec sent" 652.79999999999995
scalar SimpleConfiguratorNetwork.host11.eth[0].mac "bits/sec rcvd" 652.79999999999995
scalar SimpleConfiguratorNetwork.host11.eth[0].mac "rx channel idle (%)" 99.999929600000002
scalar SimpleConfiguratorNetwork.host11.eth[0].mac "rx channel utilization (%)" 7.039999999999999e-05
scalar SimpleConfiguratorNetwork.host11.eth[0].mac rxPausePkUnits:count 0
scalar SimpleConfiguratorNetwork.host11.eth[0].mac rxPausePkUnits:sum 0
scalar SimpleConfiguratorNetwork.host11.eth[0].mac txPausePkUnits:count 0
scalar SimpleConfiguratorNetwork.host11.eth[0].mac txPausePkUnits:sum 0
scalar SimpleConfiguratorNetwork.host11.eth[0].mac rxPkOk:count 8
scalar SimpleConfiguratorNetwork.host11.eth[0].mac rxPkOk:sum(packetBytes) 816
scalar SimpleConfiguratorNetwork.host11.eth[0].mac txPk:count 8
scalar SimpleConfiguratorNetwork.host11.eth[0].mac txPk:sum(packetBytes) 816
scalar SimpleConfiguratorNetwork.host11.eth[0].mac packetReceivedFromUpper:count 8
scalar SimpleConfiguratorNetwork.host11.eth[0].mac packetReceivedFromUpper:sum(packetBytes) 816
scalar SimpleConfiguratorNetwork.host11.eth[0].mac passedUpPk:count 8
scalar SimpleConfiguratorNetwork.host11.eth[0].mac passedUpPk:sum(packetBytes) 816
scalar SimpleConfiguratorNetwork.host11.eth[0].mac packetDropIncorrectlyReceived:count 0
scalar SimpleConfiguratorNetwork.host11.eth[0].mac packetDropIncorrectlyReceived:sum(packetBytes) 0
scalar SimpleConfiguratorNetwork.host11.eth[0].mac packetDropInterfaceDown:count 0
scalar SimpleConfiguratorNetwork.host11.eth[0].mac packetDropInterfaceDown:sum(packetBytes) 0
scalar SimpleConfiguratorNetwork.host11.eth[0].mac packetDropNotAddressedToUs:count 0
scalar SimpleConfiguratorNetwork.host11.eth[0].mac packetDropNotAddressedToUs:sum(packetBytes) 0
scalar SimpleConfiguratorNetwork.host11.eth[0] packetDropInterfaceDown:count 0
scalar SimpleConfiguratorNetwork.host11.eth[0] packetDropInterfaceDown:sum(packetBytes) 0
scalar SimpleConfiguratorNetwork.host11.eth[0] packetDropNoCarrier:count 0
scalar SimpleConfiguratorNetwork.host11.eth[0] packetDropNoCarrier:sum(packetBytes) 0
scalar SimpleConfiguratorNetwork.host11.eth[1].queue queueLength:last 0
scalar SimpleConfiguratorNetwork.host11.eth[1].queue queueLength:max 1
scalar SimpleConfiguratorNetwork.host11.eth[1].queue queueLength:timeavg 9.1999999999999997e-09
scalar SimpleConfiguratorNetwork.host11.eth[1].queue queueBitLength:last 0
scalar SimpleConfiguratorNetwork.host11.eth[1].queue queueBitLength:max 816
scalar SimpleConfiguratorNetwork.host11.eth[1].queue queueBitLength:timeavg 7.5071999999999999e-06
scalar SimpleConfiguratorNetwork.host11.eth[1].queue outgoingPackets:count 12
scalar SimpleConfiguratorNetwork.host11.eth[1].queue outgoingPacketLengths:sum 9792
scalar SimpleConfiguratorNetwork.host11.eth[1].queue incomingPackets:count 12
scalar SimpleConfiguratorNetwork.host11.eth[1].queue incomingPacketLengths:sum 9792
scalar SimpleConfiguratorNetwork.host11.eth[1].queue droppedPacketsQueueOverflow:count 0
scalar SimpleConfiguratorNetwork.host11.eth[1].queue droppedPacketLengthsQueueOverflow:sum 0
scalar SimpleConfiguratorNetwork.host11.eth[1].mac "simulated time" 10
scalar SimpleConfiguratorNetwork.host11.eth[1].mac full-duplex 1
scalar SimpleConfiguratorNetwork.host11.eth[1].mac "frames/sec sent" 1.2
scalar SimpleConfiguratorNetwork.host11.eth[1].mac "frames/sec rcvd" 1.2
scalar SimpleConfiguratorNetwork.host11.eth[1].mac "bits/sec sent" 979.20000000000005
scalar SimpleConfiguratorNetwork.host11.eth[1].mac "bits/sec rcvd" 979.20000000000005
scalar SimpleConfiguratorNetwork.host11.eth[1].mac "rx channel idle (%)" 99.999894400000002
scalar SimpleConfiguratorNetwork.host11.eth[1].mac "rx channel utilization (%)" 0.00010559999999999999
scalar SimpleConfiguratorNetwork.host11.eth[1].mac rxPausePkUnits:count 0
scalar SimpleConfiguratorNetwork.host11.eth[1].mac rxPausePkUnits:sum 0
scalar SimpleConfiguratorNetwork.host11.eth[1].mac txPausePkUnits:count 0
scalar SimpleConfiguratorNetwork.host11.eth[1].mac txPausePkUnits:sum 0
scalar SimpleConfiguratorNetwork.host11.eth[1].mac rxPkOk:count 12
scalar SimpleConfiguratorNetwork.host11.eth[1].mac rxPkOk:sum(packetBytes) 1224
scalar SimpleConfiguratorNetwork.host11.eth[1].mac txPk:count 12
scalar SimpleConfiguratorNetwork.host11.eth[1].mac txPk:sum(packetBytes) 1224
scalar SimpleConfiguratorNetwork.host11.eth[1].mac packetReceivedFromUpper:count 12
scalar SimpleConfiguratorNetwork.host11.eth[1].mac packetReceivedFromUpper:sum(packetBytes) 1224
scalar SimpleConfiguratorNetwork.host11.eth[1].mac passedUpPk:count 12
scalar SimpleConfiguratorNetwork.host11.eth[1].mac passedUpPk:sum(packetBytes) 1224
scalar SimpleConfiguratorNetwork.host11.eth[1].mac packetDropIncorrectlyReceived:count 0
scalar SimpleConfiguratorNetwork.host11.eth[1].mac packetDropIncorrectlyReceived:sum(packetBytes) 0
scalar SimpleConfiguratorNetwork.host11.eth[1].mac packetDropInterfaceDown:count 0
scalar SimpleConfiguratorNetwork.host11.eth[1].mac packetDropInterfaceDown:sum(packetBytes) 0
scalar SimpleConfiguratorNetwork.host11.eth[1].mac packetDropNotAddressedToUs:count 0
scalar SimpleConfiguratorNetwork.host11.eth[1].mac packetDropNotAddressedToUs:sum(packetBytes) 0
scalar SimpleConfiguratorNetwork.host11.eth[1] packetDropInterfaceDown:count 0
scalar SimpleConfiguratorNetwork.host11.eth[1] packetDropInterfaceDown:sum(packetBytes) 0
scalar SimpleConfiguratorNetwork.host11.eth[1] packetDropNoCarrier:count 0
scalar SimpleConfiguratorNetwork.host11.eth[1] packetDropNoCarrier:sum(packetBytes) 0
scalar SimpleConfiguratorNetwork.host11.ipv4.ip packetDropAddressResolutionFailed:count 0
scalar SimpleConfiguratorNetwork.host11.ipv4.ip packetDropAddressResolutionFailed:sum(packetBytes) 0
scalar SimpleConfiguratorNetwork.host11.ipv4.ip packetDropHopLimitReached:count 0
scalar SimpleConfiguratorNetwork.host11.ipv4.ip packetDropHopLimitReached:sum(packetBytes) 0
scalar SimpleConfiguratorNetwork.host11.ipv4.ip packetDropForwardingDisabled:count 0
scalar SimpleConfiguratorNetwork.host11.ipv4.ip packetDropForwardingDisabled:sum(packetBytes) 0
scalar SimpleConfiguratorNetwork.host11.ipv4.ip packetDropLifetimeExpired:count 0
scalar SimpleConfiguratorNetwork.host11.ipv4.ip packetDropLifetimeExpired:sum(packetBytes) 0
scalar SimpleConfiguratorNetwork.host11.ipv4.ip packetDropNoInterfaceFound:count 0
scalar SimpleConfiguratorNetwork.host11.ipv4.ip packetDropNoInterfaceFound:sum(packetBytes) 0
scalar SimpleConfiguratorNetwork.host11.ipv4.ip packetDropNoRouteFound:count 0
scalar SimpleConfiguratorNetwork.host11.ipv4.ip packetDropNoRouteFound:sum(packetBytes) 0
scalar SimpleConfiguratorNetwork.host11.ipv4.ip packetDropUndefined:count 0
scalar SimpleConfiguratorNetwork.host11.ipv4.ip packetDropUndefined:sum(packetBytes) 0
scalar SimpleConfiguratorNetwork.host11.udp packetReceived:count 0
scalar SimpleConfiguratorNetwork.host11.udp packetReceived:sum(packetBytes) 0
scalar SimpleConfiguratorNetwork.host11.udp packetSent:count 0
scalar SimpleConfiguratorNetwork.host11.udp packetSent:sum(packetBytes) 0
scalar SimpleConfiguratorNetwork.host11.udp passedUpPk:count 0
scalar SimpleConfiguratorNetwork.host11.udp droppedPkWrongPort:count 0
scalar SimpleConfiguratorNetwork.host11.udp droppedPkBadChecksum:count 0
scalar SimpleConfiguratorNetwork.host11.app[0] "Pings sent" 8
scalar SimpleConfiguratorNetwork.host11.app[0] "ping loss rate (%)" 0
scalar SimpleConfiguratorNetwork.host11.app[0] "ping out-of-order rate (%)" 0
scalar SimpleConfiguratorNetwork.host11.app[0] pingRxSeq:count 8
scalar SimpleConfiguratorNetwork.host11.app[0] pingTxSeq:count 8
scalar SimpleConfiguratorNetwork.host11.app[0] numOutOfOrderArrivals:last nan
scalar SimpleConfiguratorNetwork.host11.app[0] numLost:last nan
scalar SimpleConfiguratorNetwork.host21.ethernet pauseSent:count 0
scalar SimpleConfiguratorNetwork.host21.ethernet pauseSent:sum 0
scalar SimpleConfiguratorNetwork.host21.ethernet decapPk:count 12
scalar SimpleConfiguratorNetwork.host21.ethernet decapPk:sum(packetBytes) 1008
scalar SimpleConfiguratorNetwork.host21.ethernet encapPk:count 12
scalar SimpleConfiguratorNetwork.host21.ethernet encapPk:sum(packetBytes) 1008
scalar SimpleConfiguratorNetwork.host21.lo[0].lo rcvdPkFromHl:count 4
scalar SimpleConfiguratorNetwork.host21.lo[0].lo rcvdPkFromHl:sum(packetBytes) 336
scalar SimpleConfiguratorNetwork.host21.lo[0].lo passedUpPk:count 4
scalar SimpleConfiguratorNetwork.host21.lo[0].lo passedUpPk:sum(packetBytes) 336
scalar SimpleConfiguratorNetwork.host21.lo[0] packetDropInterfaceDown:count 0
scalar SimpleConfiguratorNetwork.host21.lo[0] packetDropInterfaceDown:sum(packetBytes) 0
scalar SimpleConfiguratorNetwork.host21.lo[0] packetDropNoCarrier:count 0
scalar SimpleConfiguratorNetwork.host21.lo[0] packetDropNoCarrier:sum(packetBytes) 0
scalar SimpleConfiguratorNetwork.host21.eth[0].queue queueLength:last 0
scalar SimpleConfiguratorNetwork.host21.eth[0].queue queueLength:max 0
scalar SimpleConfiguratorNetwork.host21.eth[0].queue queueLength:timeavg 0
scalar SimpleConfiguratorNetwork.host21.eth[0].queue queueBitLength:last 0
scalar SimpleConfiguratorNetwork.host21.eth[0].queue queueBitLength:max 0
scalar SimpleConfiguratorNetwork.host21.eth[0].queue queueBitLength:timeavg 0
scalar SimpleConfiguratorNetwork.host21.eth[0].queue outgoingPackets:count 8
scalar SimpleConfiguratorNetwork.host21.eth[0].queue outgoingPacketLengths:sum 6528
scalar SimpleConfiguratorNetwork.host21.eth[0].queue incomingPackets:count 8
scalar SimpleConfiguratorNetwork.host21.eth[0].queue incomingPacketLengths:sum 6528
scalar SimpleConfiguratorNetwork.host21.eth[0].queue droppedPacketsQueueOverflow:count 0
scalar SimpleConfiguratorNetwork.host21.eth[0].queue droppedPacketLengthsQueueOverflow:sum 0
scalar SimpleConfiguratorNetwork.host21.eth[0].mac "simulated time" 10
scalar SimpleConfiguratorNetwork.host21.eth[0].mac full-duplex 1
scalar SimpleConfiguratorNetwork.host21.eth[0].mac "frames/sec sent" 0.80000000000000004
scalar SimpleConfiguratorNetwork.host21.eth[0].mac "frames/sec rcvd" 0.80000000000000004
scalar SimpleConfiguratorNetwork.host21.eth[0].mac "bits/sec sent" 652.79999999999995
scalar SimpleConfiguratorNetwork.host21.eth[0].mac "bits/sec rcvd" 652.79999999999995
scalar SimpleConfiguratorNetwork.host21.eth[0].mac "rx channel idle (%)" 99.999929600000002
scalar SimpleConfiguratorNetwork.host21.eth[0].mac "rx channel utilization (%)" 7.039999999999999e-05
scalar SimpleConfiguratorNetwork.host21.eth[0].mac rxPausePkUnits:count 0
scalar SimpleConfiguratorNetwork.host21.eth[0].mac rxPausePkUnits:sum 0
scalar SimpleConfiguratorNetwork.host21.eth[0].mac txPausePkUnits:count 0
scalar SimpleConfiguratorNetwork.host21.eth[0].mac txPausePkUnits:sum 0
scalar SimpleConfiguratorNetwork.host21.eth[0].mac rxPkOk:count 8
scalar SimpleConfiguratorNetwork.host21.eth[0].mac rxPkOk:sum(packetBytes) 816
scalar SimpleConfiguratorNetwork.host21.eth[0].mac txPk:count 8
scalar SimpleConfiguratorNetwork.host21.eth[0].mac txPk:sum(packetBytes) 816
scalar SimpleConfiguratorNetwork.host21.eth[0].mac packetReceivedFromUpper:count 8
scalar SimpleConfiguratorNetwork.host21.eth[0].mac packetReceivedFromUpper:sum(packetBytes) 816
scalar SimpleConfiguratorNetwork.host21.eth[0].mac passedUpPk:count 8
scalar SimpleConfiguratorNetwork.host21.eth[0].mac passedUpPk:sum(packetBytes) 816
scalar SimpleConfiguratorNetwork.host21.eth[0].mac packetDropIncorrectlyReceived:count 0
scalar SimpleConfiguratorNetwork.host21.eth[0].mac packetDropIncorrectlyReceived:sum(packetBytes) 0
scalar SimpleConfiguratorNetwork.host21.eth[0].mac packetDropInterfaceDown:count 0
scalar SimpleConfiguratorNetwork.host21.eth[0].mac packetDropInterfaceDown:sum(packetBytes) 0
scalar SimpleConfiguratorNetwork.host21.eth[0].mac packetDropNotAddressedToUs:count 0
scalar SimpleConfiguratorNetwork.host21.eth[0].mac packetDropNotAddressedToUs:sum(packetBytes) 0
scalar SimpleConfiguratorNetwork.host21.eth[0] packetDropInterfaceDown:count 0
scalar SimpleConfiguratorNetwork.host21.eth[0] packetDropInterfaceDown:sum(packetBytes) 0
scalar SimpleConfiguratorNetwork.host21.eth[0] packetDropNoCarrier:count 0
scalar SimpleConfiguratorNetwork.host21.eth[0] packetDropNoCarrier:sum(packetBytes) 0
scalar SimpleConfiguratorNetwork.host21.eth[1].queue queueLength:last 0
scalar SimpleConfiguratorNetwork.host21.eth[1].queue queueLength:max 0
scalar SimpleConfiguratorNetwork.host21.eth[1].queue queueLength:timeavg 0
scalar SimpleConfiguratorNetwork.host21.eth[1].queue queueBitLength:last 0
scalar SimpleConfiguratorNetwork.host21.eth[1].queue queueBitLength:max 0
scalar SimpleConfiguratorNetwork.host21.eth[1].queue queueBitLength:timeavg 0
scalar SimpleConfiguratorNetwork.host21.eth[1].queue outgoingPackets:count 4
scalar SimpleConfiguratorNetwork.host21.eth[1].queue outgoingPacketLengths:sum 3264
scalar SimpleConfiguratorNetwork.host21.eth[1].queue incomingPackets:count 4
scalar SimpleConfiguratorNetwork.host21.eth[1].queue incomingPacketLengths:sum 3264
scalar SimpleConfiguratorNetwork.host21.eth[1].queue droppedPacketsQueueOverflow:count 0
scalar SimpleConfiguratorNetwork.host21.eth[1].queue droppedPacketLengthsQueueOverflow:sum 0
scalar SimpleConfiguratorNetwork.host21.eth[1].mac "simulated time" 10
scalar SimpleConfiguratorNetwork.host21.eth[1].mac full-duplex 1
scalar SimpleConfiguratorNetwork.host21.eth[1].mac "frames/sec sent" 0.40000000000000002
scalar SimpleConfiguratorNetwork.host21.eth[1].mac "frames/sec rcvd" 0.40000000000000002
scalar SimpleConfiguratorNetwork.host21.eth[1].mac "bits/sec sent" 326.39999999999998
scalar SimpleConfiguratorNetwork.host21.eth[1].mac "bits/sec rcvd" 326.39999999999998
scalar SimpleConfiguratorNetwork.host21.eth[1].mac "rx channel idle (%)" 99.999964800000001
scalar SimpleConfiguratorNetwork.host21.eth[1].mac "rx channel utilization (%)" 3.5199999999999995e-05
scalar SimpleConfiguratorNetwork.host21.eth[1].mac rxPausePkUnits:count 0
scalar SimpleConfiguratorNetwork.host21.eth[1].mac rxPausePkUnits:sum 0
scalar SimpleConfiguratorNetwork.host21.eth[1].mac txPausePkUnits:count 0
scalar SimpleConfiguratorNetwork.host21.eth[1].mac txPausePkUnits:sum 0
scalar SimpleConfiguratorNetwork.host21.eth[1].mac rxPkOk:count 4
scalar SimpleConfiguratorNetwork.host21.eth[1].mac rxPkOk:sum(packetBytes) 408
scalar SimpleConfiguratorNetwork.host21.eth[1].mac txPk:count 4
scalar SimpleConfiguratorNetwork.host21.eth[1].mac txPk:sum(packetBytes) 408
scalar SimpleConfiguratorNetwork.host21.eth[1].mac packetReceivedFromUpper:count 4
scalar SimpleConfiguratorNetwork.host21.eth[1].mac packetReceivedFromUpper:sum(packetBytes) 408
scalar SimpleConfiguratorNetwork.host21.eth[1].mac passedUpPk:count 4
scalar SimpleConfiguratorNetwork.host21.eth[1].mac passedUpPk:sum(packetBytes) 408
scalar SimpleConfiguratorNetwork.host21.eth[1].mac packetDropIncorrectlyReceived:count 0
scalar SimpleConfiguratorNetwork.host21.eth[1].mac packetDropIncorrectlyReceived:sum(packetBytes) 0
scalar SimpleConfiguratorNetwork.host21.eth[1].mac packetDropInterfaceDown:count 0
scalar SimpleConfiguratorNetwork.host21.eth[1].mac packetDropInterfaceDown:sum(packetBytes) 0
scalar SimpleConfiguratorNetwork.host21.eth[1].mac packetDropNotAddressedToUs:count 0
scalar SimpleConfiguratorNetwork.host21.eth[1].mac packetDropNotAddressedToUs:sum(packetBytes) 0
scalar SimpleConfiguratorNetwork.host21.eth[1] packetDropInterfaceDown:count 0
scalar SimpleConfiguratorNetwork.host21.eth[1] packetDropInterfaceDown:sum(packetBytes) 0
scalar SimpleConfiguratorNetwork.host21.eth[1] packetDropNoCarrier:count 0
scalar SimpleConfiguratorNetwork.host21.eth[1] packetDropNoCarrier:sum(packetBytes) 0
scalar SimpleConfiguratorNetwork.host21.ipv4.ip packetDropAddressResolutionFailed:count 0
scalar SimpleConfiguratorNetwork.host21.ipv4.ip packetDropAddressResolutionFailed:sum(packetBytes) 0
scalar SimpleConfiguratorNetwork.host21.ipv4.ip packetDropHopLimitReached:count 0
scalar SimpleConfiguratorNetwork.host21.ipv4.ip packetDropHopLimitReached:sum(packetBytes) 0
scalar SimpleConfiguratorNetwork.host21.ipv4.ip packetDropForwardingDisabled:count 0
scalar SimpleConfiguratorNetwork.host21.ipv4.ip packetDropForwardingDisabled:sum(packetBytes) 0
scalar SimpleConfiguratorNetwork.host21.ipv4.ip packetDropLifetimeExpired:count 0
scalar SimpleConfiguratorNetwork.host21.ipv4.ip packetDropLifetimeExpired:sum(packetBytes) 0
scalar SimpleConfiguratorNetwork.host21.ipv4.ip packetDropNoInterfaceFound:count 0
scalar SimpleConfiguratorNetwork.host21.ipv4.ip packetDropNoInterfaceFound:sum(packetBytes) 0
scalar SimpleConfiguratorNetwork.host21.ipv4.ip packetDropNoRouteFound:count 0
scalar SimpleConfiguratorNetwork.host21.ipv4.ip packetDropNoRouteFound:sum(packetBytes) 0
scalar SimpleConfiguratorNetwork.host21.ipv4.ip packetDropUndefined:count 0
scalar SimpleConfiguratorNetwork.host21.ipv4.ip packetDropUndefined:sum(packetBytes) 0
scalar SimpleConfiguratorNetwork.host21.udp packetReceived:count 0
scalar SimpleConfiguratorNetwork.host21.udp packetReceived:sum(packetBytes) 0
scalar SimpleConfiguratorNetwork.host21.udp packetSent:count 0
scalar SimpleConfiguratorNetwork.host21.udp packetSent:sum(packetBytes) 0
scalar SimpleConfiguratorNetwork.host21.udp passedUpPk:count 0
scalar SimpleConfiguratorNetwork.host21.udp droppedPkWrongPort:count 0
scalar SimpleConfiguratorNetwork.host21.udp droppedPkBadChecksum:count 0
scalar SimpleConfiguratorNetwork.host21.app[0] "Pings sent" 8
scalar SimpleConfiguratorNetwork.host21.app[0] "ping loss rate (%)" 0
scalar SimpleConfiguratorNetwork.host21.app[0] "ping out-of-order rate (%)" 0
scalar SimpleConfiguratorNetwork.host21.app[0] pingRxSeq:count 8
scalar SimpleConfiguratorNetwork.host21.app[0] pingTxSeq:count 8
scalar SimpleConfiguratorNetwork.host21.app[0] numOutOfOrderArrivals:last nan
scalar SimpleConfiguratorNetwork.host21.app[0] numLost:last nan
scalar SimpleConfiguratorNetwork.host12.ethernet pauseSent:count 0
scalar SimpleConfiguratorNetwork.host12.ethernet pauseSent:sum 0
scalar SimpleConfiguratorNetwork.host12.ethernet decapPk:count 20
scalar SimpleConfiguratorNetwork.host12.ethernet decapPk:sum(packetBytes) 1680
scalar SimpleConfiguratorNetwork.host12.ethernet encapPk:count 20
scalar SimpleConfiguratorNetwork.host12.ethernet encapPk:sum(packetBytes) 1680
scalar SimpleConfiguratorNetwork.host12.lo[0].lo rcvdPkFromHl:count 4
scalar SimpleConfiguratorNetwork.host12.lo[0].lo rcvdPkFromHl:sum(packetBytes) 336
scalar SimpleConfiguratorNetwork.host12.lo[0].lo passedUpPk:count 4
scalar SimpleConfiguratorNetwork.host12.lo[0].lo passedUpPk:sum(packetBytes) 336
scalar SimpleConfiguratorNetwork.host12.lo[0] packetDropInterfaceDown:count 0
scalar SimpleConfiguratorNetwork.host12.lo[0] packetDropInterfaceDown:sum(packetBytes) 0
scalar SimpleConfiguratorNetwork.host12.lo[0] packetDropNoCarrier:count 0
scalar SimpleConfiguratorNetwork.host12.lo[0] packetDropNoCarrier:sum(packetBytes) 0
scalar SimpleConfiguratorNetwork.host12.eth[0].queue queueLength:last 0
scalar SimpleConfiguratorNetwork.host12.eth[0].queue queueLength:max 1
scalar SimpleConfiguratorNetwork.host12.eth[0].queue queueLength:timeavg 9.1999999999999997e-09
scalar SimpleConfiguratorNetwork.host12.eth[0].queue queueBitLength:last 0
scalar SimpleConfiguratorNetwork.host12.eth[0].queue queueBitLength:max 816
scalar SimpleConfiguratorNetwork.host12.eth[0].queue queueBitLength:timeavg 7.5071999999999999e-06
scalar SimpleConfiguratorNetwork.host12.eth[0].queue outgoingPackets:count 12
scalar SimpleConfiguratorNetwork.host12.eth[0].queue outgoingPacketLengths:sum 9792
scalar SimpleConfiguratorNetwork.host12.eth[0].queue incomingPackets:count 12
scalar SimpleConfiguratorNetwork.host12.eth[0].queue incomingPacketLengths:sum 9792
scalar SimpleConfiguratorNetwork.host12.eth[0].queue droppedPacketsQueueOverflow:count 0
scalar SimpleConfiguratorNetwork.host12.eth[0].queue droppedPacketLengthsQueueOverflow:sum 0
scalar SimpleConfiguratorNetwork.host12.eth[0].mac "simulated time" 10
scalar SimpleConfiguratorNetwork.host12.eth[0].mac full-duplex 1
scalar SimpleConfiguratorNetwork.host12.eth[0].mac "frames/sec sent" 1.2
scalar SimpleConfiguratorNetwork.host12.eth[0].mac "frames/sec rcvd" 1.2
scalar SimpleConfiguratorNetwork.host12.eth[0].mac "bits/sec sent" 979.20000000000005
scalar SimpleConfiguratorNetwork.host12.eth[0].mac "bits/sec rcvd" 979.20000000000005
scalar SimpleConfiguratorNetwork.host12.eth[0].mac "rx channel idle (%)" 99.999894400000002
scalar SimpleConfiguratorNetwork.host12.eth[0].mac "rx channel utilization (%)" 0.00010559999999999999
scalar SimpleConfiguratorNetwork.host12.eth[0].mac rxPausePkUnits:count 0
scalar SimpleConfiguratorNetwork.host12.eth[0].mac rxPausePkUnits:sum 0
scalar SimpleConfiguratorNetwork.host12.eth[0].mac txPausePkUnits:count 0
scalar SimpleConfiguratorNetwork.host12.eth[0].mac txPausePkUnits:sum 0
scalar SimpleConfiguratorNetwork.host12.eth[0].mac rxPkOk:count 12
scalar SimpleConfiguratorNetwork.host12.eth[0].mac rxPkOk:sum(packetBytes) 1224
scalar SimpleConfiguratorNetwork.host12.eth[0].mac txPk:count 12
scalar SimpleConfiguratorNetwork.host12.eth[0].mac txPk:sum(packetBytes) 1224
scalar SimpleConfiguratorNetwork.host12.eth[0].mac packetReceivedFromUpper:count 12
scalar SimpleConfiguratorNetwork.host12.eth[0].mac packetReceivedFromUpper:sum(packetBytes) 1224
scalar SimpleConfiguratorNetwork.host12.eth[0].mac passedUpPk:count 12
scalar SimpleConfiguratorNetwork.host12.eth[0].mac passedUpPk:sum(packetBytes) 1224
scalar SimpleConfiguratorNetwork.host12.eth[0].mac packetDropIncorrectlyReceived:count 0
scalar SimpleConfiguratorNetwork.host12.eth[0].mac packetDropIncorrectlyReceived:sum(packetBytes) 0
scalar SimpleConfiguratorNetwork.host12.eth[0].mac packetDropInterfaceDown:count 0
scalar SimpleConfiguratorNetwork.host12.eth[0].mac packetDropInterfaceDown:sum(packetBytes) 0
scalar SimpleConfiguratorNetwork.host12.eth[0].mac packetDropNotAddressedToUs:count 0
scalar SimpleConfiguratorNetwork.host12.eth[0].mac packetDropNotAddressedToUs:sum(packetBytes) 0
scalar SimpleConfiguratorNetwork.host12.eth[0] packetDropInterfaceDown:count 0
scalar SimpleConfiguratorNetwork.host12.eth[0] packetDropInterfaceDown:sum(packetBytes) 0
scalar SimpleConfiguratorNetwork.host12.eth[0] packetDropNoCarrier:count 0
scalar SimpleConfiguratorNetwork.host12.eth[0] packetDropNoCarrier:sum(packetBytes) 0
scalar SimpleConfiguratorNetwork.host12.eth[1].queue queueLength:last 0
scalar SimpleConfiguratorNetwork.host12.eth[1].queue queueLength:max 1
scalar SimpleConfiguratorNetwork.host12.eth[1].queue queueLength:timeavg 9.1999999999999997e-09
scalar SimpleConfiguratorNetwork.host12.eth[1].queue queueBitLength:last 0
scalar SimpleConfiguratorNetwork.host12.eth[1].queue queueBitLength:max 816
scalar SimpleConfiguratorNetwork.host12.eth[1].queue queueBitLength:timeavg 7.5071999999999999e-06
scalar SimpleConfiguratorNetwork.host12.eth[1].queue outgoingPackets:count 8
scalar SimpleConfiguratorNetwork.host12.eth[1].queue outgoingPacketLengths:sum 6528
scalar SimpleConfiguratorNetwork.host12.eth[1].queue incomingPackets:count 8
scalar SimpleConfiguratorNetwork.host12.eth[1].queue incomingPacketLengths:sum 6528
scalar SimpleConfiguratorNetwork.host12.eth[1].queue droppedPacketsQueueOverflow:count 0
scalar SimpleConfiguratorNetwork.host12.eth[1].queue droppedPacketLengthsQueueOverflow:sum 0
scalar SimpleConfiguratorNetwork.host12.eth[1].mac "simulated time" 10
scalar SimpleConfiguratorNetwork.host12.eth[1].mac full-duplex 1
scalar SimpleConfiguratorNetwork.host12.eth[1].mac "frames/sec sent" 0.80000000000000004
scalar SimpleConfiguratorNetwork.host12.eth[1].mac "frames/sec rcvd" 0.80000000000000004
scalar SimpleConfiguratorNetwork.host12.eth[1].mac "bits/sec sent" 652.79999999999995
scalar SimpleConfiguratorNetwork.host12.eth[1].mac "bits/sec rcvd" 652.79999999999995
scalar SimpleConfiguratorNetwork.host12.eth[1].mac "rx channel idle (%)" 99.999929600000002
scalar SimpleConfiguratorNetwork.host12.eth[1].mac "rx channel utilization (%)" 7.039999999999999e-05
scalar SimpleConfiguratorNetwork.host12.eth[1].mac rxPausePkUnits:count 0
scalar SimpleConfiguratorNetwork.host12.eth[1].mac rxPausePkUnits:sum 0
scalar SimpleConfiguratorNetwork.host12.eth[1].mac txPausePkUnits:count 0
scalar SimpleConfiguratorNetwork.host12.eth[1].mac txPausePkUnits:sum 0
scalar SimpleConfiguratorNetwork.host12.eth[1].mac rxPkOk:count 8
scalar SimpleConfiguratorNetwork.host12.eth[1].mac rxPkOk:sum(packetBytes) 816
scalar SimpleConfiguratorNetwork.host12.eth[1].mac txPk:count 8
scalar SimpleConfiguratorNetwork.host12.eth[1].mac txPk:sum(packetBytes) 816
scalar SimpleConfiguratorNetwork.host12.eth[1].mac packetReceivedFromUpper:count 8
scalar SimpleConfiguratorNetwork.host12.eth[1].mac packetReceivedFromUpper:sum(packetBytes) 816
scalar SimpleConfiguratorNetwork.host12.eth[1].mac passedUpPk:count 8
scalar SimpleConfiguratorNetwork.host12.eth[1].mac passedUpPk:sum(packetBytes) 816
scalar SimpleConfiguratorNetwork.host12.eth[1].mac packetDropIncorrectlyReceived:count 0
scalar SimpleConfiguratorNetwork.host12.eth[1].mac packetDropIncorrectlyReceived:sum(packetBytes) 0
scalar SimpleConfiguratorNetwork.host12.eth[1].mac packetDropInterfaceDown:count 0
scalar SimpleConfiguratorNetwork.host12.eth[1].mac packetDropInterfaceDown:sum(packetBytes) 0
scalar SimpleConfiguratorNetwork.host12.eth[1].mac packetDropNotAddressedToUs:count 0
scalar SimpleConfiguratorNetwork.host12.eth[1].mac packetDropNotAddressedToUs:sum(packetBytes) 0
scalar SimpleConfiguratorNetwork.host12.eth[1] packetDropInterfaceDown:count 0
scalar SimpleConfiguratorNetwork.host12.eth[1] packetDropInterfaceDown:sum(packetBytes) 0
scalar SimpleConfiguratorNetwork.host12.eth[1] packetDropNoCarrier:count 0
scalar SimpleConfiguratorNetwork.host12.eth[1] packetDropNoCarrier:sum(packetBytes) 0
scalar SimpleConfiguratorNetwork.host12.ipv4.ip packetDropAddressResolutionFailed:count 0
scalar SimpleConfiguratorNetwork.host12.ipv4.ip packetDropAddressResolutionFailed:sum(packetBytes) 0
scalar SimpleConfiguratorNetwork.host12.ipv4.ip packetDropHopLimitReached:count 0
scalar SimpleConfiguratorNetwork.host12.ipv4.ip packetDropHopLimitReached:sum(packetBytes) 0
scalar SimpleConfiguratorNetwork.host12.ipv4.ip packetDropForwardingDisabled:count 0
scalar SimpleConfiguratorNetwork.host12.ipv4.ip packetDropForwardingDisabled:sum(packetBytes) 0
scalar SimpleConfiguratorNetwork.host12.ipv4.ip packetDropLifetimeExpired:count 0
scalar SimpleConfiguratorNetwork.host12.ipv4.ip packetDropLifetimeExpired:sum(packetBytes) 0
scalar SimpleConfiguratorNetwork.host12.ipv4.ip packetDropNoInterfaceFound:count 0
scalar SimpleConfiguratorNetwork.host12.ipv4.ip packetDropNoInterfaceFound:sum(packetBytes) 0
scalar SimpleConfiguratorNetwork.host12.ipv4.ip packetDropNoRouteFound:count 0
scalar SimpleConfiguratorNetwork.host12.ipv4.ip packetDropNoRouteFound:sum(packetBytes) 0
scalar SimpleConfiguratorNetwork.host12.ipv4.ip packetDropUndefined:count 0
scalar SimpleConfiguratorNetwork.host12.ipv4.ip packetDropUndefined:sum(packetBytes) 0
scalar SimpleConfiguratorNetwork.host12.udp packetReceived:count 0
scalar SimpleConfiguratorNetwork.host12.udp packetReceived:sum(packetBytes) 0
scalar SimpleConfiguratorNetwork.host12.udp packetSent:count 0
scalar SimpleConfiguratorNetwork.host12.udp packetSent:sum(packetBytes) 0
scalar SimpleConfiguratorNetwork.host12.udp passedUpPk:count 0
scalar SimpleConfiguratorNetwork.host12.udp droppedPkWrongPort:count 0
scalar SimpleConfiguratorNetwork.host12.udp droppedPkBadChecksum:count 0
scalar SimpleConfiguratorNetwork.host12.app[0] "Pings sent" 8
scalar SimpleConfiguratorNetwork.host12.app[0] "ping loss rate (%)" 0
scalar SimpleConfiguratorNetwork.host12.app[0] "ping out-of-order rate (%)" 0
scalar SimpleConfiguratorNetwork.host12.app[0] pingRxSeq:count 8
scalar SimpleConfiguratorNetwork.host12.app[0] pingTxSeq:count 8
scalar SimpleConfiguratorNetwork.host12.app[0] numOutOfOrderArrivals:last nan
scalar SimpleConfiguratorNetwork.host12.app[0] numLost:last nan
scalar SimpleConfiguratorNetwork.host22.ethernet pauseSent:count 0
scalar SimpleConfiguratorNetwork.host22.ethernet pauseSent:sum 0
scalar SimpleConfiguratorNetwork.host22.ethernet decapPk:count 12
scalar SimpleConfiguratorNetwork.host22.ethernet decapPk:sum(packetBytes) 1008
scalar SimpleConfiguratorNetwork.host22.ethernet encapPk:count 12
scalar SimpleConfiguratorNetwork.host22.ethernet encapPk:sum(packetBytes) 1008
scalar SimpleConfiguratorNetwork.host22.lo[0].lo rcvdPkFromHl:count 4
scalar SimpleConfiguratorNetwork.host22.lo[0].lo rcvdPkFromHl:sum(packetBytes) 336
scalar SimpleConfiguratorNetwork.host22.lo[0].lo passedUpPk:count 4
scalar SimpleConfiguratorNetwork.host22.lo[0].lo passedUpPk:sum(packetBytes) 336
scalar SimpleConfiguratorNetwork.host22.lo[0] packetDropInterfaceDown:count 0
scalar SimpleConfiguratorNetwork.host22.lo[0] packetDropInterfaceDown:sum(packetBytes) 0
scalar SimpleConfiguratorNetwork.host22.lo[0] packetDropNoCarrier:count 0
scalar SimpleConfiguratorNetwork.host22.lo[0] packetDropNoCarrier:sum(packetBytes) 0
scalar SimpleConfiguratorNetwork.host22.eth[0].queue queueLength:last 0
scalar SimpleConfiguratorNetwork.host22.eth[0].queue queueLength:max 0
scalar SimpleConfiguratorNetwork.host22.eth[0].queue queueLength:timeavg 0
scalar SimpleConfiguratorNetwork.host22.eth[0].queue queueBitLength:last 0
scalar SimpleConfiguratorNetwork.host22.eth[0].queue queueBitLength:max 0
scalar SimpleConfiguratorNetwork.host22.eth[0].queue queueBitLength:timeavg 0
scalar SimpleConfiguratorNetwork.host22.eth[0].queue outgoingPackets:count 4
scalar SimpleConfiguratorNetwork.host22.eth[0].queue outgoingPacketLengths:sum 3264
scalar SimpleConfiguratorNetwork.host22.eth[0].queue incomingPackets:count 4
scalar SimpleConfiguratorNetwork.host22.eth[0].queue incomingPacketLengths:sum 3264
scalar SimpleConfiguratorNetwork.host22.eth[0].queue droppedPacketsQueueOverflow:count 0
scalar SimpleConfiguratorNetwork.host22.eth[0].queue droppedPacketLengthsQueueOverflow:sum 0
scalar SimpleConfiguratorNetwork.host22.eth[0].mac "simulated time" 10
scalar SimpleConfiguratorNetwork.host22.eth[0].mac full-duplex 1
scalar SimpleConfiguratorNetwork.host22.eth[0].mac "frames/sec sent" 0.40000000000000002
scalar SimpleConfiguratorNetwork.host22.eth[0].mac "frames/sec rcvd" 0.40000000000000002
scalar SimpleConfiguratorNetwork.host22.eth[0].mac "bits/sec sent" 326.39999999999998
scalar SimpleConfiguratorNetwork.host22.eth[0].mac "bits/sec rcvd" 326.39999999999998
scalar SimpleConfiguratorNetwork.host22.eth[0].mac "rx channel idle (%)" 99.999964800000001
scalar SimpleConfiguratorNetwork.host22.eth[0].mac "rx channel utilization (%)" 3.5199999999999995e-05
scalar SimpleConfiguratorNetwork.host22.eth[0].mac rxPausePkUnits:count 0
scalar SimpleConfiguratorNetwork.host22.eth[0].mac rxPausePkUnits:sum 0
scalar SimpleConfiguratorNetwork.host22.eth[0].mac txPausePkUnits:count 0
scalar SimpleConfiguratorNetwork.host22.eth[0].mac txPausePkUnits:sum 0
scalar SimpleConfiguratorNetwork.host22.eth[0].mac rxPkOk:count 4
scalar SimpleConfiguratorNetwork.host22.eth[0].mac rxPkOk:sum(packetBytes) 408
scalar SimpleConfiguratorNetwork.host22.eth[0].mac txPk:count 4
scalar SimpleConfiguratorNetwork.host22.eth[0].mac txPk:sum(packetBytes) 408
scalar SimpleConfiguratorNetwork.host22.eth[0].mac packetReceivedFromUpper:count 4
scalar SimpleConfiguratorNetwork.host22.eth[0].mac packetReceivedFromUpper:sum(packetBytes) 408
scalar SimpleConfiguratorNetwork.host22.eth[0].mac passedUpPk:count 4
scalar SimpleConfiguratorNetwork.host22.eth[0].mac passedUpPk:sum(packetBytes) 408
scalar SimpleConfiguratorNetwork.host22.eth[0].mac packetDropIncorrectlyReceived:count 0
scalar SimpleConfiguratorNetwork.host22.eth[0].mac packetDropIncorrectlyReceived:sum(packetBytes) 0
scalar SimpleConfiguratorNetwork.host22.eth[0].mac packetDropInterfaceDown:count 0
scalar SimpleConfiguratorNetwork.host22.eth[0].mac packetDropInterfaceDown:sum(packetBytes) 0
scalar SimpleConfiguratorNetwork.host22.eth[0].mac packetDropNotAddressedToUs:count 0
scalar SimpleConfiguratorNetwork.host22.eth[0].mac packetDropNotAddressedToUs:sum(packetBytes) 0
scalar SimpleConfiguratorNetwork.host22.eth[0] packetDropInterfaceDown:count 0
scalar SimpleConfiguratorNetwork.host22.eth[0] packetDropInterfaceDown:sum(packetBytes) 0
scalar SimpleConfiguratorNetwork.host22.eth[0] packetDropNoCarrier:count 0
scalar SimpleConfiguratorNetwork.host22.eth[0] packetDropNoCarrier:sum(packetBytes) 0
scalar SimpleConfiguratorNetwork.host22.eth[1].queue queueLength:last 0
scalar SimpleConfiguratorNetwork.host22.eth[1].queue queueLength:max 0
scalar SimpleConfiguratorNetwork.host22.eth[1].queue queueLength:timeavg 0
scalar SimpleConfiguratorNetwork.host22.eth[1].queue queueBitLength:last 0
scalar SimpleConfiguratorNetwork.host22.eth[1].queue queueBitLength:max 0
scalar SimpleConfiguratorNetwork.host22.eth[1].queue queueBitLength:timeavg 0
scalar SimpleConfiguratorNetwork.host22.eth[1].queue outgoingPackets:count 8
scalar SimpleConfiguratorNetwork.host22.eth[1].queue outgoingPacketLengths:sum 6528
scalar SimpleConfiguratorNetwork.host22.eth[1].queue incomingPackets:count 8
scalar SimpleConfiguratorNetwork.host22.eth[1].queue incomingPacketLengths:sum 6528
scalar SimpleConfiguratorNetwork.host22.eth[1].queue droppedPacketsQueueOverflow:count 0
scalar SimpleConfiguratorNetwork.host22.eth[1].queue droppedPacketLengthsQueueOverflow:sum 0
scalar SimpleConfiguratorNetwork.host22.eth[1].mac "simulated time" 10
scalar SimpleConfiguratorNetwork.host22.eth[1].mac full-duplex 1
scalar SimpleConfiguratorNetwork.host22.eth[1].mac "frames/sec sent" 0.80000000000000004
scalar SimpleConfiguratorNetwork.host22.eth[1].mac "frames/sec rcvd" 0.80000000000000004
scalar SimpleConfiguratorNetwork.host22.eth[1].mac "bits/sec sent" 652.79999999999995
scalar SimpleConfiguratorNetwork.host22.eth[1].mac "bits/sec rcvd" 652.79999999999995
scalar SimpleConfiguratorNetwork.host22.eth[1].mac "rx channel idle (%)" 99.999929600000002
scalar SimpleConfiguratorNetwork.host22.eth[1].mac "rx channel utilization (%)" 7.039999999999999e-05
scalar SimpleConfiguratorNetwork.host22.eth[1].mac rxPausePkUnits:count 0
scalar SimpleConfiguratorNetwork.host22.eth[1].mac rxPausePkUnits:sum 0
scalar SimpleConfiguratorNetwork.host22.eth[1].mac txPausePkUnits:count 0
scalar SimpleConfiguratorNetwork.host22.eth[1].mac txPausePkUnits:sum 0
scalar SimpleConfiguratorNetwork.host22.eth[1].mac rxPkOk:count 8
scalar SimpleConfiguratorNetwork.host22.eth[1].mac rxPkOk:sum(packetBytes) 816
scalar SimpleConfiguratorNetwork.host22.eth[1].mac txPk:count 8
scalar SimpleConfiguratorNetwork.host22.eth[1].mac txPk:sum(packetBytes) 816
scalar SimpleConfiguratorNetwork.host22.eth[1].mac packetReceivedFromUpper:count 8
scalar SimpleConfiguratorNetwork.host22.eth[1].mac packetReceivedFromUpper:sum(packetBytes) 816
scalar SimpleConfiguratorNetwork.host22.eth[1].mac passedUpPk:count 8
scalar SimpleConfiguratorNetwork.host22.eth[1].mac passedUpPk:sum(packetBytes) 816
scalar SimpleConfiguratorNetwork.host22.eth[1].mac packetDropIncorrectlyReceived:count 0
scalar SimpleConfiguratorNetwork.host22.eth[1].mac packetDropIncorrectlyReceived:sum(packetBytes) 0
scalar SimpleConfiguratorNetwork.host22.eth[1].mac packetDropInterfaceDown:count 0
scalar SimpleConfiguratorNetwork.host22.eth[1].mac packetDropInterfaceDown:sum(packetBytes) 0
scalar SimpleConfiguratorNetwork.host22.eth[1].mac packetDropNotAddressedToUs:count 0
scalar SimpleConfiguratorNetwork.host22.eth[1].mac packetDropNotAddressedToUs:sum(packetBytes) 0
scalar SimpleConfiguratorNetwork.host22.eth[1] packetDropInterfaceDown:count 0
scalar SimpleConfiguratorNetwork.host22.eth[1] packetDropInterfaceDown:sum(packetBytes) 0
scalar SimpleConfiguratorNetwork.host22.eth[1] packetDropNoCarrier:count 0
scalar SimpleConfiguratorNetwork.host22.eth[1] packetDropNoCarrier:sum(packetBytes) 0
scalar SimpleConfiguratorNetwork.host22.ipv4.ip packetDropAddressResolutionFailed:count 0
scalar SimpleConfiguratorNetwork.host22.ipv4.ip packetDropAddressResolutionFailed:sum(packetBytes) 0
scalar SimpleConfiguratorNetwork.host22.ipv4.ip packetDropHopLimitReached:count 0
scalar SimpleConfiguratorNetwork.host22.ipv4.ip packetDropHopLimitReached:sum(packetBytes) 0
scalar SimpleConfiguratorNetwork.host22.ipv4.ip packetDropForwardingDisabled:count 0
scalar SimpleConfiguratorNetwork.host22.ipv4.ip packetDropForwardingDisabled:sum(packetBytes) 0
scalar SimpleConfiguratorNetwork.host22.ipv4.ip packetDropLifetimeExpired:count 0
scalar SimpleConfiguratorNetwork.host22.ipv4.ip packetDropLifetimeExpired:sum(packetBytes) 0
scalar SimpleConfiguratorNetwork.host22.ipv4.ip packetDropNoInterfaceFound:count 0
scalar SimpleConfiguratorNetwork.host22.ipv4.ip packetDropNoInterfaceFound:sum(packetBytes) 0
scalar SimpleConfiguratorNetwork.host22.ipv4.ip packetDropNoRouteFound:count 0
scalar SimpleConfiguratorNetwork.host22.ipv4.ip packetDropNoRouteFound:sum(packetBytes) 0
scalar SimpleConfiguratorNetwork.host22.ipv4.ip packetDropUndefined:count 0
scalar SimpleConfiguratorNetwork.host22.ipv4.ip packetDropUndefined:sum(packetBytes) 0
scalar SimpleConfiguratorNetwork.host22.udp packetReceived:count 0
scalar SimpleConfiguratorNetwork.host22.udp packetReceived:sum(packetBytes) 0
scalar SimpleConfiguratorNetwork.host22.udp packetSent:count 0
scalar SimpleConfiguratorNetwork.host22.udp packetSent:sum(packetBytes) 0
scalar SimpleConfiguratorNetwork.host22.udp passedUpPk:count 0
scalar SimpleConfiguratorNetwork.host22.udp droppedPkWrongPort:count 0
scalar SimpleConfiguratorNetwork.host22.udp droppedPkBadChecksum:count 0
scalar SimpleConfiguratorNetwork.host22.app[0] "Pings sent" 8
scalar SimpleConfiguratorNetwork.host22.app[0] "ping loss rate (%)" 0
scalar SimpleConfiguratorNetwork.host22.app[0] "ping out-of-order rate (%)" 0
scalar SimpleConfiguratorNetwork.host22.app[0] pingRxSeq:count 8
scalar SimpleConfiguratorNetwork.host22.app[0] pingTxSeq:count 8
scalar SimpleConfiguratorNetwork.host22.app[0] numOutOfOrderArrivals:last nan
scalar SimpleConfiguratorNetwork.host22.app[0] numLost:last nan
scalar SimpleConfiguratorNetwork.host11.eth[0].queue queueingTime:histogram:count 8
scalar SimpleConfiguratorNetwork.host11.eth[0].queue queueingTime:histogram:sumweights 8
scalar SimpleConfiguratorNetwork.host11.eth[0].queue queueingTime:histogram:mean 1.15e-08
scalar SimpleConfiguratorNetwork.host11.eth[0].queue queueingTime:histogram:stddev 2.1293862294768684e-08
scalar SimpleConfiguratorNetwork.host11.eth[0].queue queueingTime:histogram:min 0
scalar SimpleConfiguratorNetwork.host11.eth[0].queue queueingTime:histogram:max 4.6000000000000002e-08
scalar SimpleConfiguratorNetwork.host11.eth[0].queue queueingTime:histogram:numbins 58
scalar SimpleConfiguratorNetwork.host11.eth[0].queue queueingTime:histogram:rangemin 0
scalar SimpleConfiguratorNetwork.host11.eth[0].queue queueingTime:histogram:rangemax 5.8000000000000016e-08
scalar SimpleConfiguratorNetwork.host11.eth[0].queue queueingTime:histogram:underflows 0
scalar SimpleConfiguratorNetwork.host11.eth[0].queue queueingTime:histogram:overflows 0
scalar SimpleConfiguratorNetwork.host11.eth[0].queue outgoingPacketLengths:histogram:count 8
scalar SimpleConfiguratorNetwork.host11.eth[0].queue outgoingPacketLengths:histogram:sumweights 8
scalar SimpleConfiguratorNetwork.host11.eth[0].queue outgoingPacketLengths:histogram:mean 816
scalar SimpleConfiguratorNetwork.host11.eth[0].queue outgoingPacketLengths:histogram:stddev 0
scalar SimpleConfiguratorNetwork.host11.eth[0].queue outgoingPacketLengths:histogram:min 816
scalar SimpleConfiguratorNetwork.host11.eth[0].queue outgoingPacketLengths:histogram:max 816
scalar SimpleConfiguratorNetwork.host11.eth[0].queue outgoingPacketLengths:histogram:numbins 2
scalar SimpleConfiguratorNetwork.host11.eth[0].queue outgoingPacketLengths:histogram:rangemin 815
scalar SimpleConfiguratorNetwork.host11.eth[0].queue outgoingPacketLengths:histogram:rangemax 817
scalar SimpleConfiguratorNetwork.host11.eth[0].queue outgoingPacketLengths:histogram:underflows 0
scalar SimpleConfiguratorNetwork.host11.eth[0].queue outgoingPacketLengths:histogram:overflows 0
scalar SimpleConfiguratorNetwork.host11.eth[0].queue flowQueueingTime:histogram:count 0
scalar SimpleConfiguratorNetwork.host11.eth[0].queue flowQueueingTime:histogram:sumweights 0
scalar SimpleConfiguratorNetwork.host11.eth[0].queue flowQueueingTime:histogram:mean -nan
scalar SimpleConfiguratorNetwork.host11.eth[0].queue flowQueueingTime:histogram:stddev nan
scalar SimpleConfiguratorNetwork.host11.eth[0].queue flowQueueingTime:histogram:min nan
scalar SimpleConfiguratorNetwork.host11.eth[0].queue flowQueueingTime:histogram:max nan
scalar SimpleConfiguratorNetwork.host11.eth[0].queue flowQueueingTime:histogram:numbins 1
scalar SimpleConfiguratorNetwork.host11.eth[0].queue flowQueueingTime:histogram:rangemin 0
scalar SimpleConfiguratorNetwork.host11.eth[0].queue flowQueueingTime:histogram:rangemax 1
scalar SimpleConfiguratorNetwork.host11.eth[0].queue flowQueueingTime:histogram:underflows 0
scalar SimpleConfiguratorNetwork.host11.eth[0].queue flowQueueingTime:histogram:overflows 0
scalar SimpleConfiguratorNetwork.host11.eth[0].queue incomingPacketLengths:histogram:count 8
scalar SimpleConfiguratorNetwork.host11.eth[0].queue incomingPacketLengths:histogram:sumweights 8
scalar SimpleConfiguratorNetwork.host11.eth[0].queue incomingPacketLengths:histogram:mean 816
scalar SimpleConfiguratorNetwork.host11.eth[0].queue incomingPacketLengths:histogram:stddev 0
scalar SimpleConfiguratorNetwork.host11.eth[0].queue incomingPacketLengths:histogram:min 816
scalar SimpleConfiguratorNetwork.host11.eth[0].queue incomingPacketLengths:histogram:max 816
scalar SimpleConfiguratorNetwork.host11.eth[0].queue incomingPacketLengths:histogram:numbins 2
scalar SimpleConfiguratorNetwork.host11.eth[0].queue incomingPacketLengths:histogram:rangemin 815
scalar SimpleConfiguratorNetwork.host11.eth[0].queue incomingPacketLengths:histogram:rangemax 817
scalar SimpleConfiguratorNetwork.host11.eth[0].queue incomingPacketLengths:histogram:underflows 0
scalar SimpleConfiguratorNetwork.host11.eth[0].queue incomingPacketLengths:histogram:overflows 0
scalar SimpleConfiguratorNetwork.host11.eth[0].mac throughput:histogram:count 100
scalar SimpleConfiguratorNetwork.host11.eth[0].mac throughput:histogram:sumweights 100
scalar SimpleConfiguratorNetwork.host11.eth[0].mac throughput:histogram:mean 704
scalar SimpleConfiguratorNetwork.host11.eth[0].mac throughput:histogram:stddev 2980.9469039961855
scalar SimpleConfiguratorNetwork.host11.eth[0].mac throughput:histogram:min 0
scalar SimpleConfiguratorNetwork.host11.eth[0].mac throughput:histogram:max 17600
scalar SimpleConfiguratorNetwork.host11.eth[0].mac throughput:histogram:numbins 44
scalar SimpleConfiguratorNetwork.host11.eth[0].mac throughput:histogram:rangemin 0
scalar SimpleConfiguratorNetwork.host11.eth[0].mac throughput:histogram:rangemax 22000
scalar SimpleConfiguratorNetwork.host11.eth[0].mac throughput:histogram:underflows 0
scalar SimpleConfiguratorNetwork.host11.eth[0].mac throughput:histogram:overflows 0
scalar SimpleConfiguratorNetwork.host11.eth[0].mac utilization:histogram:count 100
scalar SimpleConfiguratorNetwork.host11.eth[0].mac utilization:histogram:sumweights 100
scalar SimpleConfiguratorNetwork.host11.eth[0].mac utilization:histogram:mean 7.039999999999999e-05
scalar SimpleConfiguratorNetwork.host11.eth[0].mac utilization:histogram:stddev 0.0002980946903996186
scalar SimpleConfiguratorNetwork.host11.eth[0].mac utilization:histogram:min 0
scalar SimpleConfiguratorNetwork.host11.eth[0].mac utilization:histogram:max 0.0017600000000000001
scalar SimpleConfiguratorNetwork.host11.eth[0].mac utilization:histogram:numbins 44
scalar SimpleConfiguratorNetwork.host11.eth[0].mac utilization:histogram:rangemin 0
scalar SimpleConfiguratorNetwork.host11.eth[0].mac utilization:histogram:rangemax 0.0022000000000000001
scalar SimpleConfiguratorNetwork.host11.eth[0].mac utilization:histogram:underflows 0
scalar SimpleConfiguratorNetwork.host11.eth[0].mac utilization:histogram:overflows 0
scalar SimpleConfiguratorNetwork.host11.eth[1].queue queueingTime:histogram:count 12
scalar SimpleConfiguratorNetwork.host11.eth[1].queue queueingTime:histogram:sumweights 12
scalar SimpleConfiguratorNetwork.host11.eth[1].queue queueingTime:histogram:mean 7.6666666666666675e-09
scalar SimpleConfiguratorNetwork.host11.eth[1].queue queueingTime:histogram:stddev 1.7905475715715027e-08
scalar SimpleConfiguratorNetwork.host11.eth[1].queue queueingTime:histogram:min 0
scalar SimpleConfiguratorNetwork.host11.eth[1].queue queueingTime:histogram:max 4.6000000000000002e-08
scalar SimpleConfiguratorNetwork.host11.eth[1].queue queueingTime:histogram:numbins 58
scalar SimpleConfiguratorNetwork.host11.eth[1].queue queueingTime:histogram:rangemin 0
scalar SimpleConfiguratorNetwork.host11.eth[1].queue queueingTime:histogram:rangemax 5.8000000000000016e-08
scalar SimpleConfiguratorNetwork.host11.eth[1].queue queueingTime:histogram:underflows 0
scalar SimpleConfiguratorNetwork.host11.eth[1].queue queueingTime:histogram:overflows 0
scalar SimpleConfiguratorNetwork.host11.eth[1].queue outgoingPacketLengths:histogram:count 12
scalar SimpleConfiguratorNetwork.host11.eth[1].queue outgoingPacketLengths:histogram:sumweights 12
scalar SimpleConfiguratorNetwork.host11.eth[1].queue outgoingPacketLengths:histogram:mean 816
scalar SimpleConfiguratorNetwork.host11.eth[1].queue outgoingPacketLengths:histogram:stddev 0
scalar SimpleConfiguratorNetwork.host11.eth[1].queue outgoingPacketLengths:histogram:min 816
scalar SimpleConfiguratorNetwork.host11.eth[1].queue outgoingPacketLengths:histogram:max 816
scalar SimpleConfiguratorNetwork.host11.eth[1].queue outgoingPacketLengths:histogram:numbins 2
scalar SimpleConfiguratorNetwork.host11.eth[1].queue outgoingPacketLengths:histogram:rangemin 815
scalar SimpleConfiguratorNetwork.host11.eth[1].queue outgoingPacketLengths:histogram:rangemax 817
scalar SimpleConfiguratorNetwork.host11.eth[1].queue outgoingPacketLengths:histogram:underflows 0
scalar SimpleConfiguratorNetwork.host11.eth[1].queue outgoingPacketLengths:histogram:overflows 0
scalar SimpleConfiguratorNetwork.host11.eth[1].queue flowQueueingTime:histogram:count 0
scalar SimpleConfiguratorNetwork.host11.eth[1].queue flowQueueingTime:histogram:sumweights 0
scalar SimpleConfiguratorNetwork.host11.eth[1].queue flowQueueingTime:histogram:mean -nan
scalar SimpleConfiguratorNetwork.host11.eth[1].queue flowQueueingTime:histogram:stddev nan
scalar SimpleConfiguratorNetwork.host11.eth[1].queue flowQueueingTime:histogram:min nan
scalar SimpleConfiguratorNetwork.host11.eth[1].queue flowQueueingTime:histogram:max nan
scalar SimpleConfiguratorNetwork.host11.eth[1].queue flowQueueingTime:histogram:numbins 1
scalar SimpleConfiguratorNetwork.host11.eth[1].queue flowQueueingTime:histogram:rangemin 0
scalar SimpleConfiguratorNetwork.host11.eth[1].queue flowQueueingTime:histogram:rangemax 1
scalar SimpleConfiguratorNetwork.host11.eth[1].queue flowQueueingTime:histogram:underflows 0
scalar SimpleConfiguratorNetwork.host11.eth[1].queue flowQueueingTime:histogram:overflows 0
scalar SimpleConfiguratorNetwork.host11.eth[1].queue incomingPacketLengths:histogram:count 12
scalar SimpleConfiguratorNetwork.host11.eth[1].queue incomingPacketLengths:histogram:sumweights 12
scalar SimpleConfiguratorNetwork.host11.eth[1].queue incomingPacketLengths:histogram:mean 816
scalar SimpleConfiguratorNetwork.host11.eth[1].queue incomingPacketLengths:histogram:stddev 0
scalar SimpleConfiguratorNetwork.host11.eth[1].queue incomingPacketLengths:histogram:min 816
scalar SimpleConfiguratorNetwork.host11.eth[1].queue incomingPacketLengths:histogram:max 816
scalar SimpleConfiguratorNetwork.host11.eth[1].queue incomingPacketLengths:histogram:numbins 2
scalar SimpleConfiguratorNetwork.host11.eth[1].queue incomingPacketLengths:histogram:rangemin 815
scalar SimpleConfiguratorNetwork.host11.eth[1].queue incomingPacketLengths:histogram:rangemax 817
scalar SimpleConfiguratorNetwork.host11.eth[1].queue incomingPacketLengths:histogram:underflows 0
scalar SimpleConfiguratorNetwork.host11.eth[1].queue incomingPacketLengths:histogram:overflows 0
scalar SimpleConfiguratorNetwork.host11.eth[1].mac throughput:histogram:count 100
scalar SimpleConfiguratorNetwork.host11.eth[1].mac throughput:histogram:sumweights 100
scalar SimpleConfiguratorNetwork.host11.eth[1].mac throughput:histogram:mean 1056
scalar SimpleConfiguratorNetwork.host11.eth[1].mac throughput:histogram:stddev 3810.2551678915738
scalar SimpleConfiguratorNetwork.host11.eth[1].mac throughput:histogram:min 0
scalar SimpleConfiguratorNetwork.host11.eth[1].mac throughput:histogram:max 17600
scalar SimpleConfiguratorNetwork.host11.eth[1].mac throughput:histogram:numbins 44
scalar SimpleConfiguratorNetwork.host11.eth[1].mac throughput:histogram:rangemin 0
scalar SimpleConfiguratorNetwork.host11.eth[1].mac throughput:histogram:rangemax 22000
scalar SimpleConfiguratorNetwork.host11.eth[1].mac throughput:histogram:underflows 0
scalar SimpleConfiguratorNetwork.host11.eth[1].mac throughput:histogram:overflows 0
scalar SimpleConfiguratorNetwork.host11.eth[1].mac utilization:histogram:count 100
scalar SimpleConfiguratorNetwork.host11.eth[1].mac utilization:histogram:sumweights 100
scalar SimpleConfiguratorNetwork.host11.eth[1].mac utilization:histogram:mean 0.00010560000000000002
scalar SimpleConfiguratorNetwork.host11.eth[1].mac utilization:histogram:stddev 0.00038102551678915737
scalar SimpleConfiguratorNetwork.host11.eth[1].mac utilization:histogram:min 0
scalar SimpleConfiguratorNetwork.host11.eth[1].mac utilization:histogram:max 0.0017600000000000001
scalar SimpleConfiguratorNetwork.host11.eth[1].mac utilization:histogram:numbins 44
scalar SimpleConfiguratorNetwork.host11.eth[1].mac utilization:histogram:rangemin 0
scalar SimpleConfiguratorNetwork.host11.eth[1].mac utilization:histogram:rangemax 0.0022000000000000001
scalar SimpleConfiguratorNetwork.host11.eth[1].mac utilization:histogram:underflows 0
scalar SimpleConfiguratorNetwork.host11.eth[1].mac utilization:histogram:overflows 0
scalar SimpleConfiguratorNetwork.host11.app[0] rtt:histogram:count 6
scalar SimpleConfiguratorNetwork.host11.app[0] rtt:histogram:sumweights 6
scalar SimpleConfiguratorNetwork.host11.app[0] rtt:histogram:mean 2.4953333333333335e-06
scalar SimpleConfiguratorNetwork.host11.app[0] rtt:histogram:stddev 9.8425416771617813e-07
scalar SimpleConfiguratorNetwork.host11.app[0] rtt:histogram:min 1.86e-06
scalar SimpleConfiguratorNetwork.host11.app[0] rtt:histogram:max 3.766e-06
scalar SimpleConfiguratorNetwork.host11.app[0] rtt:histogram:numbins 58
scalar SimpleConfiguratorNetwork.host11.app[0] rtt:histogram:rangemin 1.3500000000000002e-06
scalar SimpleConfiguratorNetwork.host11.app[0] rtt:histogram:rangemax 4.2500000000000008e-06
scalar SimpleConfiguratorNetwork.host11.app[0] rtt:histogram:underflows 0
scalar SimpleConfiguratorNetwork.host11.app[0] rtt:histogram:overflows 0
scalar SimpleConfiguratorNetwork.host21.eth[0].queue queueingTime:histogram:count 8
scalar SimpleConfiguratorNetwork.host21.eth[0].queue queueingTime:histogram:sumweights 8
scalar SimpleConfiguratorNetwork.host21.eth[0].queue queueingTime:histogram:mean 0
scalar SimpleConfiguratorNetwork.host21.eth[0].queue queueingTime:histogram:stddev 0
scalar SimpleConfiguratorNetwork.host21.eth[0].queue queueingTime:histogram:min 0
scalar SimpleConfiguratorNetwork.host21.eth[0].queue queueingTime:histogram:max 0
scalar SimpleConfiguratorNetwork.host21.eth[0].queue queueingTime:histogram:numbins 50
scalar SimpleConfiguratorNetwork.host21.eth[0].queue queueingTime:histogram:rangemin -0.5
scalar SimpleConfiguratorNetwork.host21.eth[0].queue queueingTime:histogram:rangemax 0.5
scalar SimpleConfiguratorNetwork.host21.eth[0].queue queueingTime:histogram:underflows 0
scalar SimpleConfiguratorNetwork.host21.eth[0].queue queueingTime:histogram:overflows 0
scalar SimpleConfiguratorNetwork.host21.eth[0].queue outgoingPacketLengths:histogram:count 8
scalar SimpleConfiguratorNetwork.host21.eth[0].queue outgoingPacketLengths:histogram:sumweights 8
scalar SimpleConfiguratorNetwork.host21.eth[0].queue outgoingPacketLengths:histogram:mean 816
scalar SimpleConfiguratorNetwork.host21.eth[0].queue outgoingPacketLengths:histogram:stddev 0
scalar SimpleConfiguratorNetwork.host21.eth[0].queue outgoingPacketLengths:histogram:min 816
scalar SimpleConfiguratorNetwork.host21.eth[0].queue outgoingPacketLengths:histogram:max 816
scalar SimpleConfiguratorNetwork.host21.eth[0].queue outgoingPacketLengths:histogram:numbins 2
scalar SimpleConfiguratorNetwork.host21.eth[0].queue outgoingPacketLengths:histogram:rangemin 815
scalar SimpleConfiguratorNetwork.host21.eth[0].queue outgoingPacketLengths:histogram:rangemax 817
scalar SimpleConfiguratorNetwork.host21.eth[0].queue outgoingPacketLengths:histogram:underflows 0
scalar SimpleConfiguratorNetwork.host21.eth[0].queue outgoingPacketLengths:histogram:overflows 0
scalar SimpleConfiguratorNetwork.host21.eth[0].queue flowQueueingTime:histogram:count 0
scalar SimpleConfiguratorNetwork.host21.eth[0].queue flowQueueingTime:histogram:sumweights 0
scalar SimpleConfiguratorNetwork.host21.eth[0].queue flowQueueingTime:histogram:mean -nan
scalar SimpleConfiguratorNetwork.host21.eth[0].queue flowQueueingTime:histogram:stddev nan
scalar SimpleConfiguratorNetwork.host21.eth[0].queue flowQueueingTime:histogram:min nan
scalar SimpleConfiguratorNetwork.host21.eth[0].queue flowQueueingTime:histogram:max nan
scalar SimpleConfiguratorNetwork.host21.eth[0].queue flowQueueingTime:histogram:numbins 1
scalar SimpleConfiguratorNetwork.host21.eth[0].queue flowQueueingTime:histogram:rangemin 0
scalar SimpleConfiguratorNetwork.host21.eth[0].queue flowQueueingTime:histogram:rangemax 1
scalar SimpleConfiguratorNetwork.host21.eth[0].queue flowQueueingTime:histogram:underflows 0
scalar SimpleConfiguratorNetwork.host21.eth[0].queue flowQueueingTime:histogram:overflows 0
scalar SimpleConfiguratorNetwork.host21.eth[0].queue incomingPacketLengths:histogram:count 8
scalar SimpleConfiguratorNetwork.host21.eth[0].queue incomingPacketLengths:histogram:sumweights 8
scalar SimpleConfiguratorNetwork.host21.eth[0].queue incomingPacketLengths:histogram:mean 816
scalar SimpleConfiguratorNetwork.host21.eth[0].queue incomingPacketLengths:histogram:stddev 0
scalar SimpleConfiguratorNetwork.host21.eth[0].queue incomingPacketLengths:histogram:min 816
scalar SimpleConfiguratorNetwork.host21.eth[0].queue incomingPacketLengths:histogram:max 816
scalar SimpleConfiguratorNetwork.host21.eth[0].queue incomingPacketLengths:histogram:numbins 2
scalar SimpleConfiguratorNetwork.host21.eth[0].queue incomingPacketLengths:histogram:rangemin 815
scalar SimpleConfiguratorNetwork.host21.eth[0].queue incomingPacketLengths:histogram:rangemax 817
scalar SimpleConfiguratorNetwork.host21.eth[0].queue incomingPacketLengths:histogram:underflows 0
scalar SimpleConfiguratorNetwork.host21.eth[0].queue incomingPacketLengths:histogram:overflows 0
scalar SimpleConfiguratorNetwork.host21.eth[0].mac throughput:histogram:count 100
scalar SimpleConfiguratorNetwork.host21.eth[0].mac throughput:histogram:sumweights 100
scalar SimpleConfiguratorNetwork.host21.eth[0].mac throughput:histogram:mean 704
scalar SimpleConfiguratorNetwork.host21.eth[0].mac throughput:histogram:stddev 2980.9469039961855
scalar SimpleConfiguratorNetwork.host21.eth[0].mac throughput:histogram:min 0
scalar SimpleConfiguratorNetwork.host21.eth[0].mac throughput:histogram:max 17600
scalar SimpleConfiguratorNetwork.host21.eth[0].mac throughput:histogram:numbins 44
scalar SimpleConfiguratorNetwork.host21.eth[0].mac throughput:histogram:rangemin 0
scalar SimpleConfiguratorNetwork.host21.eth[0].mac throughput:histogram:rangemax 22000
scalar SimpleConfiguratorNetwork.host21.eth[0].mac throughput:histogram:underflows 0
scalar SimpleConfiguratorNetwork.host21.eth[0].mac throughput:histogram:overflows 0
scalar SimpleConfiguratorNetwork.host21.eth[0].mac utilization:histogram:count 100
scalar SimpleConfiguratorNetwork.host21.eth[0].mac utilization:histogram:sumweights 100
scalar SimpleConfiguratorNetwork.host21.eth[0].mac utilization:histogram:mean 7.039999999999999e-05
scalar SimpleConfiguratorNetwork.host21.eth[0].mac utilization:histogram:stddev 0.0002980946903996186
scalar SimpleConfiguratorNetwork.host21.eth[0].mac utilization:histogram:min 0
scalar SimpleConfiguratorNetwork.host21.eth[0].mac utilization:histogram:max 0.0017600000000000001
scalar SimpleConfiguratorNetwork.host21.eth[0].mac utilization:histogram:numbins 44
scalar SimpleConfiguratorNetwork.host21.eth[0].mac utilization:histogram:rangemin 0
scalar SimpleConfiguratorNetwork.host21.eth[0].mac utilization:histogram:rangemax 0.0022000000000000001
scalar SimpleConfiguratorNetwork.host21.eth[0].mac utilization:histogram:underflows 0
scalar SimpleConfiguratorNetwork.host21.eth[0].mac utilization:histogram:overflows 0
scalar SimpleConfiguratorNetwork.host21.eth[1].queue queueingTime:histogram:count 4
scalar SimpleConfiguratorNetwork.host21.eth[1].queue queueingTime:histogram:sumweights 4
scalar SimpleConfiguratorNetwork.host21.eth[1].queue queueingTime:histogram:mean 0
scalar SimpleConfiguratorNetwork.host21.eth[1].queue queueingTime:histogram:stddev 0
scalar SimpleConfiguratorNetwork.host21.eth[1].queue queueingTime:histogram:min 0
scalar SimpleConfiguratorNetwork.host21.eth[1].queue queueingTime:histogram:max 0
scalar SimpleConfiguratorNetwork.host21.eth[1].queue queueingTime:histogram:numbins 50
scalar SimpleConfiguratorNetwork.host21.eth[1].queue queueingTime:histogram:rangemin -0.5
scalar SimpleConfiguratorNetwork.host21.eth[1].queue queueingTime:histogram:rangemax 0.5
scalar SimpleConfiguratorNetwork.host21.eth[1].queue queueingTime:histogram:underflows 0
scalar SimpleConfiguratorNetwork.host21.eth[1].queue queueingTime:histogram:overflows 0
scalar SimpleConfiguratorNetwork.host21.eth[1].queue outgoingPacketLengths:histogram:count 4
scalar SimpleConfiguratorNetwork.host21.eth[1].queue outgoingPacketLengths:histogram:sumweights 4
scalar SimpleConfiguratorNetwork.host21.eth[1].queue outgoingPacketLengths:histogram:mean 816
scalar SimpleConfiguratorNetwork.host21.eth[1].queue outgoingPacketLengths:histogram:stddev 0
scalar SimpleConfiguratorNetwork.host21.eth[1].queue outgoingPacketLengths:histogram:min 816
scalar SimpleConfiguratorNetwork.host21.eth[1].queue outgoingPacketLengths:histogram:max 816
scalar SimpleConfiguratorNetwork.host21.eth[1].queue outgoingPacketLengths:histogram:numbins 2
scalar SimpleConfiguratorNetwork.host21.eth[1].queue outgoingPacketLengths:histogram:rangemin 815
scalar SimpleConfiguratorNetwork.host21.eth[1].queue outgoingPacketLengths:histogram:rangemax 817
scalar SimpleConfiguratorNetwork.host21.eth[1].queue outgoingPacketLengths:histogram:underflows 0
scalar SimpleConfiguratorNetwork.host21.eth[1].queue outgoingPacketLengths:histogram:overflows 0
scalar SimpleConfiguratorNetwork.host21.eth[1].queue flowQueueingTime:histogram:count 0
scalar SimpleConfiguratorNetwork.host21.eth[1].queue flowQueueingTime:histogram:sumweights 0
scalar SimpleConfiguratorNetwork.host21.eth[1].queue flowQueueingTime:histogram:mean -nan
scalar SimpleConfiguratorNetwork.host21.eth[1].queue flowQueueingTime:histogram:stddev nan
scalar SimpleConfiguratorNetwork.host21.eth[1].queue flowQueueingTime:histogram:min nan
scalar SimpleConfiguratorNetwork.host21.eth[1].queue flowQueueingTime:histogram:max nan
scalar SimpleConfiguratorNetwork.host21.eth[1].queue flowQueueingTime:histogram:numbins 1
scalar SimpleConfiguratorNetwork.host21.eth[1].queue flowQueueingTime:histogram:rangemin 0
scalar SimpleConfiguratorNetwork.host21.eth[1].queue flowQueueingTime:histogram:rangemax 1
scalar SimpleConfiguratorNetwork.host21.eth[1].queue flowQueueingTime:histogram:underflows 0
scalar SimpleConfiguratorNetwork.host21.eth[1].queue flowQueueingTime:histogram:overflows 0
scalar SimpleConfiguratorNetwork.host21.eth[1].queue incomingPacketLengths:histogram:count 4
scalar SimpleConfiguratorNetwork.host21.eth[1].queue incomingPacketLengths:histogram:sumweights 4
scalar SimpleConfiguratorNetwork.host21.eth[1].queue incomingPacketLengths:histogram:mean 816
scalar SimpleConfiguratorNetwork.host21.eth[1].queue incomingPacketLengths:histogram:stddev 0
scalar SimpleConfiguratorNetwork.host21.eth[1].queue incomingPacketLengths:histogram:min 816
scalar SimpleConfiguratorNetwork.host21.eth[1].queue incomingPacketLengths:histogram:max 816
scalar SimpleConfiguratorNetwork.host21.eth[1].queue incomingPacketLengths:histogram:numbins 2
scalar SimpleConfiguratorNetwork.host21.eth[1].queue incomingPacketLengths:histogram:rangemin 815
scalar SimpleConfiguratorNetwork.host21.eth[1].queue incomingPacketLengths:histogram:rangemax 817
scalar SimpleConfiguratorNetwork.host21.eth[1].queue incomingPacketLengths:histogram:underflows 0
scalar SimpleConfiguratorNetwork.host21.eth[1].queue incomingPacketLengths:histogram:overflows 0
scalar SimpleConfiguratorNetwork.host21.eth[1].mac throughput:histogram:count 100
scalar SimpleConfiguratorNetwork.host21.eth[1].mac throughput:histogram:sumweights 100
scalar SimpleConfiguratorNetwork.host21.eth[1].mac throughput:histogram:mean 352
scalar SimpleConfiguratorNetwork.host21.eth[1].mac throughput:histogram:stddev 1733.1281929890049
scalar SimpleConfiguratorNetwork.host21.eth[1].mac throughput:histogram:min 0
scalar SimpleConfiguratorNetwork.host21.eth[1].mac throughput:histogram:max 8800
scalar SimpleConfiguratorNetwork.host21.eth[1].mac throughput:histogram:numbins 55
scalar SimpleConfiguratorNetwork.host21.eth[1].mac throughput:histogram:rangemin 0
scalar SimpleConfiguratorNetwork.host21.eth[1].mac throughput:histogram:rangemax 11000
scalar SimpleConfiguratorNetwork.host21.eth[1].mac throughput:histogram:underflows 0
scalar SimpleConfiguratorNetwork.host21.eth[1].mac throughput:histogram:overflows 0
scalar SimpleConfiguratorNetwork.host21.eth[1].mac utilization:histogram:count 100
scalar SimpleConfiguratorNetwork.host21.eth[1].mac utilization:histogram:sumweights 100
scalar SimpleConfiguratorNetwork.host21.eth[1].mac utilization:histogram:mean 3.5200000000000002e-05
scalar SimpleConfiguratorNetwork.host21.eth[1].mac utilization:histogram:stddev 0.00017331281929890049
scalar SimpleConfiguratorNetwork.host21.eth[1].mac utilization:histogram:min 0
scalar SimpleConfiguratorNetwork.host21.eth[1].mac utilization:histogram:max 0.00088000000000000003
scalar SimpleConfiguratorNetwork.host21.eth[1].mac utilization:histogram:numbins 55
scalar SimpleConfiguratorNetwork.host21.eth[1].mac utilization:histogram:rangemin 0
scalar SimpleConfiguratorNetwork.host21.eth[1].mac utilization:histogram:rangemax 0.0011000000000000001
scalar SimpleConfiguratorNetwork.host21.eth[1].mac utilization:histogram:underflows 0
scalar SimpleConfiguratorNetwork.host21.eth[1].mac utilization:histogram:overflows 0
scalar SimpleConfiguratorNetwork.host21.app[0] rtt:histogram:count 6
scalar SimpleConfiguratorNetwork.host21.app[0] rtt:histogram:sumweights 6
scalar SimpleConfiguratorNetwork.host21.app[0] rtt:histogram:mean 2.495333333333333e-06
scalar SimpleConfiguratorNetwork.host21.app[0] rtt:histogram:stddev 9.842541677161794e-07
scalar SimpleConfiguratorNetwork.host21.app[0] rtt:histogram:min 1.86e-06
scalar SimpleConfiguratorNetwork.host21.app[0] rtt:histogram:max 3.766e-06
scalar SimpleConfiguratorNetwork.host21.app[0] rtt:histogram:numbins 58
scalar SimpleConfiguratorNetwork.host21.app[0] rtt:histogram:rangemin 1.3500000000000002e-06
scalar SimpleConfiguratorNetwork.host21.app[0] rtt:histogram:rangemax 4.2500000000000008e-06
scalar SimpleConfiguratorNetwork.host21.app[0] rtt:histogram:underflows 0
scalar SimpleConfiguratorNetwork.host21.app[0] rtt:histogram:overflows 0
scalar SimpleConfiguratorNetwork.host12.eth[0].queue queueingTime:histogram:count 12
scalar SimpleConfiguratorNetwork.host12.eth[0].queue queueingTime:histogram:sumweights 12
scalar SimpleConfiguratorNetwork.host12.eth[0].queue queueingTime:histogram:mean 7.6666666666666675e-09
scalar SimpleConfiguratorNetwork.host12.eth[0].queue queueingTime:histogram:stddev 1.7905475715715027e-08
scalar SimpleConfiguratorNetwork.host12.eth[0].queue queueingTime:histogram:min 0
scalar SimpleConfiguratorNetwork.host12.eth[0].queue queueingTime:histogram:max 4.6000000000000002e-08
scalar SimpleConfiguratorNetwork.host12.eth[0].queue queueingTime:histogram:numbins 58
scalar SimpleConfiguratorNetwork.host12.eth[0].queue queueingTime:histogram:rangemin 0
scalar SimpleConfiguratorNetwork.host12.eth[0].queue queueingTime:histogram:rangemax 5.8000000000000016e-08
scalar SimpleConfiguratorNetwork.host12.eth[0].queue queueingTime:histogram:underflows 0
scalar SimpleConfiguratorNetwork.host12.eth[0].queue queueingTime:histogram:overflows 0
scalar SimpleConfiguratorNetwork.host12.eth[0].queue outgoingPacketLengths:histogram:count 12
scalar SimpleConfiguratorNetwork.host12.eth[0].queue outgoingPacketLengths:histogram:sumweights 12
scalar SimpleConfiguratorNetwork.host12.eth[0].queue outgoingPacketLengths:histogram:mean 816
scalar SimpleConfiguratorNetwork.host12.eth[0].queue outgoingPacketLengths:histogram:stddev 0
scalar SimpleConfiguratorNetwork.host12.eth[0].queue outgoingPacketLengths:histogram:min 816
scalar SimpleConfiguratorNetwork.host12.eth[0].queue outgoingPacketLengths:histogram:max 816
scalar SimpleConfiguratorNetwork.host12.eth[0].queue outgoingPacketLengths:histogram:numbins 2
scalar SimpleConfiguratorNetwork.host12.eth[0].queue outgoingPacketLengths:histogram:rangemin 815
scalar SimpleConfiguratorNetwork.host12.eth[0].queue outgoingPacketLengths:histogram:rangemax 817
scalar SimpleConfiguratorNetwork.host12.eth[0].queue outgoingPacketLengths:histogram:underflows 0
scalar SimpleConfiguratorNetwork.host12.eth[0].queue outgoingPacketLengths:histogram:overflows 0
scalar SimpleConfiguratorNetwork.host12.eth[0].queue flowQueueingTime:histogram:count 0
scalar SimpleConfiguratorNetwork.host12.eth[0].queue flowQueueingTime:histogram:sumweights 0
scalar SimpleConfiguratorNetwork.host12.eth[0].queue flowQueueingTime:histogram:mean -nan
scalar SimpleConfiguratorNetwork.host12.eth[0].queue flowQueueingTime:histogram:stddev nan
scalar SimpleConfiguratorNetwork.host12.eth[0].queue flowQueueingTime:histogram:min nan
scalar SimpleConfiguratorNetwork.host12.eth[0].queue flowQueueingTime:histogram:max nan
scalar SimpleConfiguratorNetwork.host12.eth[0].queue flowQueueingTime:histogram:numbins 1
scalar SimpleConfiguratorNetwork.host12.eth[0].queue flowQueueingTime:histogram:rangemin 0
scalar SimpleConfiguratorNetwork.host12.eth[0].queue flowQueueingTime:histogram:rangemax 1
scalar SimpleConfiguratorNetwork.host12.eth[0].queue flowQueueingTime:histogram:underflows 0
scalar SimpleConfiguratorNetwork.host12.eth[0].queue flowQueueingTime:histogram:overflows 0
scalar SimpleConfiguratorNetwork.host12.eth[0].queue incomingPacketLengths:histogram:count 12
scalar SimpleConfiguratorNetwork.host12.eth[0].queue incomingPacketLengths:histogram:sumweights 12
scalar SimpleConfiguratorNetwork.host12.eth[0].queue incomingPacketLengths:histogram:mean 816
scalar SimpleConfiguratorNetwork.host12.eth[0].queue incomingPacketLengths:histogram:stddev 0
scalar SimpleConfiguratorNetwork.host12.eth[0].queue incomingPacketLengths:histogram:min 816
scalar SimpleConfiguratorNetwork.host12.eth[0].queue incomingPacketLengths:histogram:max 816
scalar SimpleConfiguratorNetwork.host12.eth[0].queue incomingPacketLengths:histogram:numbins 2
scalar SimpleConfiguratorNetwork.host12.eth[0].queue incomingPacketLengths:histogram:rangemin 815
scalar SimpleConfiguratorNetwork.host12.eth[0].queue incomingPacketLengths:histogram:rangemax 817
scalar SimpleConfiguratorNetwork.host12.eth[0].queue incomingPacketLengths:histogram:underflows 0
scalar SimpleConfiguratorNetwork.host12.eth[0].queue incomingPacketLengths:histogram:overflows 0
scalar SimpleConfiguratorNetwork.host12.eth[0].mac throughput:histogram:count 100
scalar SimpleConfiguratorNetwork.host12.eth[0].mac throughput:histogram:sumweights 100
scalar SimpleConfiguratorNetwork.host12.eth[0].mac throughput:histogram:mean 1056
scalar SimpleConfiguratorNetwork.host12.eth[0].mac throughput:histogram:stddev 3810.2551678915738
scalar SimpleConfiguratorNetwork.host12.eth[0].mac throughput:histogram:min 0
scalar SimpleConfiguratorNetwork.host12.eth[0].mac throughput:histogram:max 17600
scalar SimpleConfiguratorNetwork.host12.eth[0].mac throughput:histogram:numbins 44
scalar SimpleConfiguratorNetwork.host12.eth[0].mac throughput:histogram:rangemin 0
scalar SimpleConfiguratorNetwork.host12.eth[0].mac throughput:histogram:rangemax 22000
scalar SimpleConfiguratorNetwork.host12.eth[0].mac throughput:histogram:underflows 0
scalar SimpleConfiguratorNetwork.host12.eth[0].mac throughput:histogram:overflows 0
scalar SimpleConfiguratorNetwork.host12.eth[0].mac utilization:histogram:count 100
scalar SimpleConfiguratorNetwork.host12.eth[0].mac utilization:histogram:sumweights 100
scalar SimpleConfiguratorNetwork.host12.eth[0].mac utilization:histogram:mean 0.00010560000000000002
scalar SimpleConfiguratorNetwork.host12.eth[0].mac utilization:histogram:stddev 0.00038102551678915737
scalar SimpleConfiguratorNetwork.host12.eth[0].mac utilization:histogram:min 0
scalar SimpleConfiguratorNetwork.host12.eth[0].mac utilization:histogram:max 0.0017600000000000001
scalar SimpleConfiguratorNetwork.host12.eth[0].mac utilization:histogram:numbins 44
scalar SimpleConfiguratorNetwork.host12.eth[0].mac utilization:histogram:rangemin 0
scalar SimpleConfiguratorNetwork.host12.eth[0].mac utilization:histogram:rangemax 0.0022000000000000001
scalar SimpleConfiguratorNetwork.host12.eth[0].mac utilization:histogram:underflows 0
scalar SimpleConfiguratorNetwork.host12.eth[0].mac utilization:histogram:overflows 0
scalar SimpleConfiguratorNetwork.host12.eth[1].queue queueingTime:histogram:count 8
scalar SimpleConfiguratorNetwork.host12.eth[1].queue queueingTime:histogram:sumweights 8
scalar SimpleConfiguratorNetwork.host12.eth[1].queue queueingTime:histogram:mean 1.15e-08
scalar SimpleConfiguratorNetwork.host12.eth[1].queue queueingTime:histogram:stddev 2.1293862294768684e-08
scalar SimpleConfiguratorNetwork.host12.eth[1].queue queueingTime:histogram:min 0
scalar SimpleConfiguratorNetwork.host12.eth[1].queue queueingTime:histogram:max 4.6000000000000002e-08
scalar SimpleConfiguratorNetwork.host12.eth[1].queue queueingTime:histogram:numbins 58
scalar SimpleConfiguratorNetwork.host12.eth[1].queue queueingTime:histogram:rangemin 0
scalar SimpleConfiguratorNetwork.host12.eth[1].queue queueingTime:histogram:rangemax 5.8000000000000016e-08
scalar SimpleConfiguratorNetwork.host12.eth[1].queue queueingTime:histogram:underflows 0
scalar SimpleConfiguratorNetwork.host12.eth[1].queue queueingTime:histogram:overflows 0
scalar SimpleConfiguratorNetwork.host12.eth[1].queue outgoingPacketLengths:histogram:count 8
scalar SimpleConfiguratorNetwork.host12.eth[1].queue outgoingPacketLengths:histogram:sumweights 8
scalar SimpleConfiguratorNetwork.host12.eth[1].queue outgoingPacketLengths:histogram:mean 816
scalar SimpleConfiguratorNetwork.host12.eth[1].queue outgoingPacketLengths:histogram:stddev 0
scalar SimpleConfiguratorNetwork.host12.eth[1].queue outgoingPacketLengths:histogram:min 816
scalar SimpleConfiguratorNetwork.host12.eth[1].queue outgoingPacketLengths:histogram:max 816
scalar SimpleConfiguratorNetwork.host12.eth[1].queue outgoingPacketLengths:histogram:numbins 2
scalar SimpleConfiguratorNetwork.host12.eth[1].queue outgoingPacketLengths:histogram:rangemin 815
scalar SimpleConfiguratorNetwork.host12.eth[1].queue outgoingPacketLengths:histogram:rangemax 817
scalar SimpleConfiguratorNetwork.host12.eth[1].queue outgoingPacketLengths:histogram:underflows 0
scalar SimpleConfiguratorNetwork.host12.eth[1].queue outgoingPacketLengths:histogram:overflows 0
scalar SimpleConfiguratorNetwork.host12.eth[1].queue flowQueueingTime:histogram:count 0
scalar SimpleConfiguratorNetwork.host12.eth[1].queue flowQueueingTime:histogram:sumweights 0
scalar SimpleConfiguratorNetwork.host12.eth[1].queue flowQueueingTime:histogram:mean -nan
scalar SimpleConfiguratorNetwork.host12.eth[1].queue flowQueueingTime:histogram:stddev nan
scalar SimpleConfiguratorNetwork.host12.eth[1].queue flowQueueingTime:histogram:min nan
scalar SimpleConfiguratorNetwork.host12.eth[1].queue flowQueueingTime:histogram:max nan
scalar SimpleConfiguratorNetwork.host12.eth[1].queue flowQueueingTime:histogram:numbins 1
scalar SimpleConfiguratorNetwork.host12.eth[1].queue flowQueueingTime:histogram:rangemin 0
scalar SimpleConfiguratorNetwork.host12.eth[1].queue flowQueueingTime:histogram:rangemax 1
scalar SimpleConfiguratorNetwork.host12.eth[1].queue flowQueueingTime:histogram:underflows 0
scalar SimpleConfiguratorNetwork.host12.eth[1].queue flowQueueingTime:histogram:overflows 0
scalar SimpleConfiguratorNetwork.host12.eth[1].queue incomingPacketLengths:histogram:count 8
scalar SimpleConfiguratorNetwork.host12.eth[1].queue incomingPacketLengths:histogram:sumweights 8
scalar SimpleConfiguratorNetwork.host12.eth[1].queue incomingPacketLengths:histogram:mean 816
scalar SimpleConfiguratorNetwork.host12.eth[1].queue incomingPacketLengths:histogram:stddev 0
scalar SimpleConfiguratorNetwork.host12.eth[1].queue incomingPacketLengths:histogram:min 816
scalar SimpleConfiguratorNetwork.host12.eth[1].queue incomingPacketLengths:histogram:max 816
scalar SimpleConfiguratorNetwork.host12.eth[1].queue incomingPacketLengths:histogram:numbins 2
scalar SimpleConfiguratorNetwork.host12.eth[1].queue incomingPacketLengths:histogram:rangemin 815
scalar SimpleConfiguratorNetwork.host12.eth[1].queue incomingPacketLengths:histogram:rangemax 817
scalar SimpleConfiguratorNetwork.host12.eth[1].queue incomingPacketLengths:histogram:underflows 0
scalar SimpleConfiguratorNetwork.host12.eth[1].queue incomingPacketLengths:histogram:overflows 0
scalar SimpleConfiguratorNetwork.host12.eth[1].mac throughput:histogram:count 100
scalar SimpleConfiguratorNetwork.host12.eth[1].mac throughput:histogram:sumweights 100
scalar SimpleConfiguratorNetwork.host12.eth[1].mac throughput:histogram:mean 704
scalar SimpleConfiguratorNetwork.host12.eth[1].mac throughput:histogram:stddev 2980.9469039961855
scalar SimpleConfiguratorNetwork.host12.eth[1].mac throughput:histogram:min 0
scalar SimpleConfiguratorNetwork.host12.eth[1].mac throughput:histogram:max 17600
scalar SimpleConfiguratorNetwork.host12.eth[1].mac throughput:histogram:numbins 89
scalar SimpleConfiguratorNetwork.host12.eth[1].mac throughput:histogram:rangemin 0
scalar SimpleConfiguratorNetwork.host12.eth[1].mac throughput:histogram:rangemax 17800
scalar SimpleConfiguratorNetwork.host12.eth[1].mac throughput:histogram:underflows 0
scalar SimpleConfiguratorNetwork.host12.eth[1].mac throughput:histogram:overflows 0
scalar SimpleConfiguratorNetwork.host12.eth[1].mac utilization:histogram:count 100
scalar SimpleConfiguratorNetwork.host12.eth[1].mac utilization:histogram:sumweights 100
scalar SimpleConfiguratorNetwork.host12.eth[1].mac utilization:histogram:mean 7.0400000000000004e-05
scalar SimpleConfiguratorNetwork.host12.eth[1].mac utilization:histogram:stddev 0.00029809469039961855
scalar SimpleConfiguratorNetwork.host12.eth[1].mac utilization:histogram:min 0
scalar SimpleConfiguratorNetwork.host12.eth[1].mac utilization:histogram:max 0.0017600000000000001
scalar SimpleConfiguratorNetwork.host12.eth[1].mac utilization:histogram:numbins 88
scalar SimpleConfiguratorNetwork.host12.eth[1].mac utilization:histogram:rangemin 0
scalar SimpleConfiguratorNetwork.host12.eth[1].mac utilization:histogram:rangemax 0.0017600000000000003
scalar SimpleConfiguratorNetwork.host12.eth[1].mac utilization:histogram:underflows 0
scalar SimpleConfiguratorNetwork.host12.eth[1].mac utilization:histogram:overflows 0
scalar SimpleConfiguratorNetwork.host12.app[0] rtt:histogram:count 6
[...]
scalar SimpleConfiguratorNetwork.host22.eth[1].mac rxPausePkUnits:vector:min inf
scalar SimpleConfiguratorNetwork.host22.eth[1].mac rxPausePkUnits:vector:max -inf
scalar SimpleConfiguratorNetwork.host22.eth[1].mac rxPausePkUnits:vector:starttime nan
scalar SimpleConfiguratorNetwork.host22.eth[1].mac rxPausePkUnits:vector:endtime nan
scalar SimpleConfiguratorNetwork.host22.eth[1].mac packetReceivedFromUpper:vector(packetBytes):count 8
scalar SimpleConfiguratorNetwork.host22.eth[1].mac packetReceivedFromUpper:vector(packetBytes):sum 816
scalar SimpleConfiguratorNetwork.host22.eth[1].mac packetReceivedFromUpper:vector(packetBytes):sumweights 8
scalar SimpleConfiguratorNetwork.host22.eth[1].mac packetReceivedFromUpper:vector(packetBytes):mean 102
scalar SimpleConfiguratorNetwork.host22.eth[1].mac packetReceivedFromUpper:vector(packetBytes):stddev 0
scalar SimpleConfiguratorNetwork.host22.eth[1].mac packetReceivedFromUpper:vector(packetBytes):min 102
scalar SimpleConfiguratorNetwork.host22.eth[1].mac packetReceivedFromUpper:vector(packetBytes):max 102
scalar SimpleConfiguratorNetwork.host22.eth[1].mac packetReceivedFromUpper:vector(packetBytes):starttime 0
scalar SimpleConfiguratorNetwork.host22.eth[1].mac packetReceivedFromUpper:vector(packetBytes):endtime 7.0000019060000023
scalar SimpleConfiguratorNetwork.host22.eth[1].mac packetDropIncorrectlyReceived:vector(packetBytes):count 0
scalar SimpleConfiguratorNetwork.host22.eth[1].mac packetDropIncorrectlyReceived:vector(packetBytes):sum 0
scalar SimpleConfiguratorNetwork.host22.eth[1].mac packetDropIncorrectlyReceived:vector(packetBytes):sumweights 0
scalar SimpleConfiguratorNetwork.host22.eth[1].mac packetDropIncorrectlyReceived:vector(packetBytes):mean -nan
scalar SimpleConfiguratorNetwork.host22.eth[1].mac packetDropIncorrectlyReceived:vector(packetBytes):stddev nan
scalar SimpleConfiguratorNetwork.host22.eth[1].mac packetDropIncorrectlyReceived:vector(packetBytes):min inf
scalar SimpleConfiguratorNetwork.host22.eth[1].mac packetDropIncorrectlyReceived:vector(packetBytes):max -inf
scalar SimpleConfiguratorNetwork.host22.eth[1].mac packetDropIncorrectlyReceived:vector(packetBytes):starttime nan
scalar SimpleConfiguratorNetwork.host22.eth[1].mac packetDropIncorrectlyReceived:vector(packetBytes):endtime nan
scalar SimpleConfiguratorNetwork.host22.eth[1].mac packetDropInterfaceDown:vector(packetBytes):count 0
scalar SimpleConfiguratorNetwork.host22.eth[1].mac packetDropInterfaceDown:vector(packetBytes):sum 0
scalar SimpleConfiguratorNetwork.host22.eth[1].mac packetDropInterfaceDown:vector(packetBytes):sumweights 0
scalar SimpleConfiguratorNetwork.host22.eth[1].mac packetDropInterfaceDown:vector(packetBytes):mean -nan
scalar SimpleConfiguratorNetwork.host22.eth[1].mac packetDropInterfaceDown:vector(packetBytes):stddev nan
scalar SimpleConfiguratorNetwork.host22.eth[1].mac packetDropInterfaceDown:vector(packetBytes):min inf
scalar SimpleConfiguratorNetwork.host22.eth[1].mac packetDropInterfaceDown:vector(packetBytes):max -inf
scalar SimpleConfiguratorNetwork.host22.eth[1].mac packetDropInterfaceDown:vector(packetBytes):starttime nan
scalar SimpleConfiguratorNetwork.host22.eth[1].mac packetDropInterfaceDown:vector(packetBytes):endtime nan
scalar SimpleConfiguratorNetwork.host22.eth[1].mac packetDropNotAddressedToUs:vector(packetBytes):count 0
scalar SimpleConfiguratorNetwork.host22.eth[1].mac packetDropNotAddressedToUs:vector(packetBytes):sum 0
scalar SimpleConfiguratorNetwork.host22.eth[1].mac packetDropNotAddressedToUs:vector(packetBytes):sumweights 0
scalar SimpleConfiguratorNetwork.host22.eth[1].mac packetDropNotAddressedToUs:vector(packetBytes):mean -nan
scalar SimpleConfiguratorNetwork.host22.eth[1].mac packetDropNotAddressedToUs:vector(packetBytes):stddev nan
scalar SimpleConfiguratorNetwork.host22.eth[1].mac packetDropNotAddressedToUs:vector(packetBytes):min inf
scalar SimpleConfiguratorNetwork.host22.eth[1].mac packetDropNotAddressedToUs:vector(packetBytes):max -inf
scalar SimpleConfiguratorNetwork.host22.eth[1].mac packetDropNotAddressedToUs:vector(packetBytes):starttime nan
scalar SimpleConfiguratorNetwork.host22.eth[1].mac packetDropNotAddressedToUs:vector(packetBytes):endtime nan
scalar SimpleConfiguratorNetwork.host22.eth[1] packetDropInterfaceDown:vector(packetBytes):count 0
scalar SimpleConfiguratorNetwork.host22.eth[1] packetDropInterfaceDown:vector(packetBytes):sum 0
scalar SimpleConfiguratorNetwork.host22.eth[1] packetDropInterfaceDown:vector(packetBytes):sumweights 0
scalar SimpleConfiguratorNetwork.host22.eth[1] packetDropInterfaceDown:vector(packetBytes):mean -nan
scalar SimpleConfiguratorNetwork.host22.eth[1] packetDropInterfaceDown:vector(packetBytes):stddev nan
scalar SimpleConfiguratorNetwork.host22.eth[1] packetDropInterfaceDown:vector(packetBytes):min inf
scalar SimpleConfiguratorNetwork.host22.eth[1] packetDropInterfaceDown:vector(packetBytes):max -inf
scalar SimpleConfiguratorNetwork.host22.eth[1] packetDropInterfaceDown:vector(packetBytes):starttime nan
scalar SimpleConfiguratorNetwork.host22.eth[1] packetDropInterfaceDown:vector(packetBytes):endtime nan
scalar SimpleConfiguratorNetwork.host22.eth[1] packetDropNoCarrier:vector(packetBytes):count 0
scalar SimpleConfiguratorNetwork.host22.eth[1] packetDropNoCarrier:vector(packetBytes):sum 0
scalar SimpleConfiguratorNetwork.host22.eth[1] packetDropNoCarrier:vector(packetBytes):sumweights 0
scalar SimpleConfiguratorNetwork.host22.eth[1] packetDropNoCarrier:vector(packetBytes):mean -nan
scalar SimpleConfiguratorNetwork.host22.eth[1] packetDropNoCarrier:vector(packetBytes):stddev nan
scalar SimpleConfiguratorNetwork.host22.eth[1] packetDropNoCarrier:vector(packetBytes):min inf
scalar SimpleConfiguratorNetwork.host22.eth[1] packetDropNoCarrier:vector(packetBytes):max -inf
scalar SimpleConfiguratorNetwork.host22.eth[1] packetDropNoCarrier:vector(packetBytes):starttime nan
scalar SimpleConfiguratorNetwork.host22.eth[1] packetDropNoCarrier:vector(packetBytes):endtime nan
scalar SimpleConfiguratorNetwork.host22.ipv4.ip packetDropAddressResolutionFailed:vector(packetBytes):count 0
scalar SimpleConfiguratorNetwork.host22.ipv4.ip packetDropAddressResolutionFailed:vector(packetBytes):sum 0
scalar SimpleConfiguratorNetwork.host22.ipv4.ip packetDropAddressResolutionFailed:vector(packetBytes):sumweights 0
scalar SimpleConfiguratorNetwork.host22.ipv4.ip packetDropAddressResolutionFailed:vector(packetBytes):mean -nan
scalar SimpleConfiguratorNetwork.host22.ipv4.ip packetDropAddressResolutionFailed:vector(packetBytes):stddev nan
scalar SimpleConfiguratorNetwork.host22.ipv4.ip packetDropAddressResolutionFailed:vector(packetBytes):min inf
scalar SimpleConfiguratorNetwork.host22.ipv4.ip packetDropAddressResolutionFailed:vector(packetBytes):max -inf
scalar SimpleConfiguratorNetwork.host22.ipv4.ip packetDropAddressResolutionFailed:vector(packetBytes):starttime nan
scalar SimpleConfiguratorNetwork.host22.ipv4.ip packetDropAddressResolutionFailed:vector(packetBytes):endtime nan
scalar SimpleConfiguratorNetwork.host22.ipv4.ip packetDropHopLimitReached:vector(packetBytes):count 0
scalar SimpleConfiguratorNetwork.host22.ipv4.ip packetDropHopLimitReached:vector(packetBytes):sum 0
scalar SimpleConfiguratorNetwork.host22.ipv4.ip packetDropHopLimitReached:vector(packetBytes):sumweights 0
scalar SimpleConfiguratorNetwork.host22.ipv4.ip packetDropHopLimitReached:vector(packetBytes):mean -nan
scalar SimpleConfiguratorNetwork.host22.ipv4.ip packetDropHopLimitReached:vector(packetBytes):stddev nan
scalar SimpleConfiguratorNetwork.host22.ipv4.ip packetDropHopLimitReached:vector(packetBytes):min inf
scalar SimpleConfiguratorNetwork.host22.ipv4.ip packetDropHopLimitReached:vector(packetBytes):max -inf
scalar SimpleConfiguratorNetwork.host22.ipv4.ip packetDropHopLimitReached:vector(packetBytes):starttime nan
scalar SimpleConfiguratorNetwork.host22.ipv4.ip packetDropHopLimitReached:vector(packetBytes):endtime nan
scalar SimpleConfiguratorNetwork.host22.ipv4.ip packetDropForwardingDisabled:vector(packetBytes):count 0
scalar SimpleConfiguratorNetwork.host22.ipv4.ip packetDropForwardingDisabled:vector(packetBytes):sum 0
scalar SimpleConfiguratorNetwork.host22.ipv4.ip packetDropForwardingDisabled:vector(packetBytes):sumweights 0
scalar SimpleConfiguratorNetwork.host22.ipv4.ip packetDropForwardingDisabled:vector(packetBytes):mean -nan
scalar SimpleConfiguratorNetwork.host22.ipv4.ip packetDropForwardingDisabled:vector(packetBytes):stddev nan
scalar SimpleConfiguratorNetwork.host22.ipv4.ip packetDropForwardingDisabled:vector(packetBytes):min inf
scalar SimpleConfiguratorNetwork.host22.ipv4.ip packetDropForwardingDisabled:vector(packetBytes):max -inf
scalar SimpleConfiguratorNetwork.host22.ipv4.ip packetDropForwardingDisabled:vector(packetBytes):starttime nan
scalar SimpleConfiguratorNetwork.host22.ipv4.ip packetDropForwardingDisabled:vector(packetBytes):endtime nan
scalar SimpleConfiguratorNetwork.host22.ipv4.ip packetDropLifetimeExpired:vector(packetBytes):count 0
scalar SimpleConfiguratorNetwork.host22.ipv4.ip packetDropLifetimeExpired:vector(packetBytes):sum 0
scalar SimpleConfiguratorNetwork.host22.ipv4.ip packetDropLifetimeExpired:vector(packetBytes):sumweights 0
scalar SimpleConfiguratorNetwork.host22.ipv4.ip packetDropLifetimeExpired:vector(packetBytes):mean -nan
scalar SimpleConfiguratorNetwork.host22.ipv4.ip packetDropLifetimeExpired:vector(packetBytes):stddev nan
scalar SimpleConfiguratorNetwork.host22.ipv4.ip packetDropLifetimeExpired:vector(packetBytes):min inf
scalar SimpleConfiguratorNetwork.host22.ipv4.ip packetDropLifetimeExpired:vector(packetBytes):max -inf
scalar SimpleConfiguratorNetwork.host22.ipv4.ip packetDropLifetimeExpired:vector(packetBytes):starttime nan
scalar SimpleConfiguratorNetwork.host22.ipv4.ip packetDropLifetimeExpired:vector(packetBytes):endtime nan
scalar SimpleConfiguratorNetwork.host22.ipv4.ip packetDropNoInterfaceFound:vector(packetBytes):count 0
scalar SimpleConfiguratorNetwork.host22.ipv4.ip packetDropNoInterfaceFound:vector(packetBytes):sum 0
scalar SimpleConfiguratorNetwork.host22.ipv4.ip packetDropNoInterfaceFound:vector(packetBytes):sumweights 0
scalar SimpleConfiguratorNetwork.host22.ipv4.ip packetDropNoInterfaceFound:vector(packetBytes):mean -nan
scalar SimpleConfiguratorNetwork.host22.ipv4.ip packetDropNoInterfaceFound:vector(packetBytes):stddev nan
scalar SimpleConfiguratorNetwork.host22.ipv4.ip packetDropNoInterfaceFound:vector(packetBytes):min inf
scalar SimpleConfiguratorNetwork.host22.ipv4.ip packetDropNoInterfaceFound:vector(packetBytes):max -inf
scalar SimpleConfiguratorNetwork.host22.ipv4.ip packetDropNoInterfaceFound:vector(packetBytes):starttime nan
scalar SimpleConfiguratorNetwork.host22.ipv4.ip packetDropNoInterfaceFound:vector(packetBytes):endtime nan
scalar SimpleConfiguratorNetwork.host22.ipv4.ip packetDropNoRouteFound:vector(packetBytes):count 0
scalar SimpleConfiguratorNetwork.host22.ipv4.ip packetDropNoRouteFound:vector(packetBytes):sum 0
scalar SimpleConfiguratorNetwork.host22.ipv4.ip packetDropNoRouteFound:vector(packetBytes):sumweights 0
scalar SimpleConfiguratorNetwork.host22.ipv4.ip packetDropNoRouteFound:vector(packetBytes):mean -nan
scalar SimpleConfiguratorNetwork.host22.ipv4.ip packetDropNoRouteFound:vector(packetBytes):stddev nan
scalar SimpleConfiguratorNetwork.host22.ipv4.ip packetDropNoRouteFound:vector(packetBytes):min inf
scalar SimpleConfiguratorNetwork.host22.ipv4.ip packetDropNoRouteFound:vector(packetBytes):max -inf
scalar SimpleConfiguratorNetwork.host22.ipv4.ip packetDropNoRouteFound:vector(packetBytes):starttime nan
scalar SimpleConfiguratorNetwork.host22.ipv4.ip packetDropNoRouteFound:vector(packetBytes):endtime nan
scalar SimpleConfiguratorNetwork.host22.ipv4.ip packetDropUndefined:vector(packetBytes):count 0
scalar SimpleConfiguratorNetwork.host22.ipv4.ip packetDropUndefined:vector(packetBytes):sum 0
scalar SimpleConfiguratorNetwork.host22.ipv4.ip packetDropUndefined:vector(packetBytes):sumweights 0
scalar SimpleConfiguratorNetwork.host22.ipv4.ip packetDropUndefined:vector(packetBytes):mean -nan
scalar SimpleConfiguratorNetwork.host22.ipv4.ip packetDropUndefined:vector(packetBytes):stddev nan
scalar SimpleConfiguratorNetwork.host22.ipv4.ip packetDropUndefined:vector(packetBytes):min inf
scalar SimpleConfiguratorNetwork.host22.ipv4.ip packetDropUndefined:vector(packetBytes):max -inf
scalar SimpleConfiguratorNetwork.host22.ipv4.ip packetDropUndefined:vector(packetBytes):starttime nan
scalar SimpleConfiguratorNetwork.host22.ipv4.ip packetDropUndefined:vector(packetBytes):endtime nan
scalar SimpleConfiguratorNetwork.host22.udp packetSent:vector(packetBytes):count 0
scalar SimpleConfiguratorNetwork.host22.udp packetSent:vector(packetBytes):sum 0
scalar SimpleConfiguratorNetwork.host22.udp packetSent:vector(packetBytes):sumweights 0
scalar SimpleConfiguratorNetwork.host22.udp packetSent:vector(packetBytes):mean -nan
scalar SimpleConfiguratorNetwork.host22.udp packetSent:vector(packetBytes):stddev nan
scalar SimpleConfiguratorNetwork.host22.udp packetSent:vector(packetBytes):min inf
scalar SimpleConfiguratorNetwork.host22.udp packetSent:vector(packetBytes):max -inf
scalar SimpleConfiguratorNetwork.host22.udp packetSent:vector(packetBytes):starttime nan
scalar SimpleConfiguratorNetwork.host22.udp packetSent:vector(packetBytes):endtime nan
scalar SimpleConfiguratorNetwork.host22.udp packetReceived:vector(packetBytes):count 0
scalar SimpleConfiguratorNetwork.host22.udp packetReceived:vector(packetBytes):sum 0
scalar SimpleConfiguratorNetwork.host22.udp packetReceived:vector(packetBytes):sumweights 0
scalar SimpleConfiguratorNetwork.host22.udp packetReceived:vector(packetBytes):mean -nan
scalar SimpleConfiguratorNetwork.host22.udp packetReceived:vector(packetBytes):stddev nan
scalar SimpleConfiguratorNetwork.host22.udp packetReceived:vector(packetBytes):min inf
scalar SimpleConfiguratorNetwork.host22.udp packetReceived:vector(packetBytes):max -inf
scalar SimpleConfiguratorNetwork.host22.udp packetReceived:vector(packetBytes):starttime nan
scalar SimpleConfiguratorNetwork.host22.udp packetReceived:vector(packetBytes):endtime nan
scalar SimpleConfiguratorNetwork.host22.udp passedUpPk:vector(count):count 1
scalar SimpleConfiguratorNetwork.host22.udp passedUpPk:vector(count):sum 0
scalar SimpleConfiguratorNetwork.host22.udp passedUpPk:vector(count):sumweights 1
scalar SimpleConfiguratorNetwork.host22.udp passedUpPk:vector(count):mean 0
scalar SimpleConfiguratorNetwork.host22.udp passedUpPk:vector(count):stddev nan
scalar SimpleConfiguratorNetwork.host22.udp passedUpPk:vector(count):min 0
scalar SimpleConfiguratorNetwork.host22.udp passedUpPk:vector(count):max 0
scalar SimpleConfiguratorNetwork.host22.udp passedUpPk:vector(count):starttime 0
scalar SimpleConfiguratorNetwork.host22.udp passedUpPk:vector(count):endtime 0
scalar SimpleConfiguratorNetwork.host22.udp droppedPkWrongPort:vector(count):count 1
scalar SimpleConfiguratorNetwork.host22.udp droppedPkWrongPort:vector(count):sum 0
scalar SimpleConfiguratorNetwork.host22.udp droppedPkWrongPort:vector(count):sumweights 1
scalar SimpleConfiguratorNetwork.host22.udp droppedPkWrongPort:vector(count):mean 0
scalar SimpleConfiguratorNetwork.host22.udp droppedPkWrongPort:vector(count):stddev nan
scalar SimpleConfiguratorNetwork.host22.udp droppedPkWrongPort:vector(count):min 0
scalar SimpleConfiguratorNetwork.host22.udp droppedPkWrongPort:vector(count):max 0
scalar SimpleConfiguratorNetwork.host22.udp droppedPkWrongPort:vector(count):starttime 0
scalar SimpleConfiguratorNetwork.host22.udp droppedPkWrongPort:vector(count):endtime 0
scalar SimpleConfiguratorNetwork.host22.udp droppedPkBadChecksum:vector(count):count 1
scalar SimpleConfiguratorNetwork.host22.udp droppedPkBadChecksum:vector(count):sum 0
scalar SimpleConfiguratorNetwork.host22.udp droppedPkBadChecksum:vector(count):sumweights 1
scalar SimpleConfiguratorNetwork.host22.udp droppedPkBadChecksum:vector(count):mean 0
scalar SimpleConfiguratorNetwork.host22.udp droppedPkBadChecksum:vector(count):stddev nan
scalar SimpleConfiguratorNetwork.host22.udp droppedPkBadChecksum:vector(count):min 0
scalar SimpleConfiguratorNetwork.host22.udp droppedPkBadChecksum:vector(count):max 0
scalar SimpleConfiguratorNetwork.host22.udp droppedPkBadChecksum:vector(count):starttime 0
scalar SimpleConfiguratorNetwork.host22.udp droppedPkBadChecksum:vector(count):endtime 0
scalar SimpleConfiguratorNetwork.host22.app[0] rtt:vector:count 6
scalar SimpleConfiguratorNetwork.host22.app[0] rtt:vector:sum 1.4971999999999998e-05
scalar SimpleConfiguratorNetwork.host22.app[0] rtt:vector:sumweights 6
scalar SimpleConfiguratorNetwork.host22.app[0] rtt:vector:mean 2.495333333333333e-06
scalar SimpleConfiguratorNetwork.host22.app[0] rtt:vector:stddev 9.8425416771618003e-07
scalar SimpleConfiguratorNetwork.host22.app[0] rtt:vector:min 1.86e-06
scalar SimpleConfiguratorNetwork.host22.app[0] rtt:vector:max 3.766e-06
scalar SimpleConfiguratorNetwork.host22.app[0] rtt:vector:starttime 3.7660000000000009e-06
scalar SimpleConfiguratorNetwork.host22.app[0] rtt:vector:endtime 5.0000018600000011
scalar SimpleConfiguratorNetwork.host22.app[0] numLost:vector:count 0
scalar SimpleConfiguratorNetwork.host22.app[0] numLost:vector:sum 0
scalar SimpleConfiguratorNetwork.host22.app[0] numLost:vector:sumweights 0
scalar SimpleConfiguratorNetwork.host22.app[0] numLost:vector:mean -nan
scalar SimpleConfiguratorNetwork.host22.app[0] numLost:vector:stddev nan
scalar SimpleConfiguratorNetwork.host22.app[0] numLost:vector:min inf
scalar SimpleConfiguratorNetwork.host22.app[0] numLost:vector:max -inf
scalar SimpleConfiguratorNetwork.host22.app[0] numLost:vector:starttime nan
scalar SimpleConfiguratorNetwork.host22.app[0] numLost:vector:endtime nan
scalar SimpleConfiguratorNetwork.host22.app[0] numOutOfOrderArrivals:vector:count 0
scalar SimpleConfiguratorNetwork.host22.app[0] numOutOfOrderArrivals:vector:sum 0
scalar SimpleConfiguratorNetwork.host22.app[0] numOutOfOrderArrivals:vector:sumweights 0
scalar SimpleConfiguratorNetwork.host22.app[0] numOutOfOrderArrivals:vector:mean -nan
scalar SimpleConfiguratorNetwork.host22.app[0] numOutOfOrderArrivals:vector:stddev nan
scalar SimpleConfiguratorNetwork.host22.app[0] numOutOfOrderArrivals:vector:min inf
scalar SimpleConfiguratorNetwork.host22.app[0] numOutOfOrderArrivals:vector:max -inf
scalar SimpleConfiguratorNetwork.host22.app[0] numOutOfOrderArrivals:vector:starttime nan
scalar SimpleConfiguratorNetwork.host22.app[0] numOutOfOrderArrivals:vector:endtime nan
scalar SimpleConfiguratorNetwork.host22.app[0] pingTxSeq:vector:count 8
scalar SimpleConfiguratorNetwork.host22.app[0] pingTxSeq:vector:sum 28
scalar SimpleConfiguratorNetwork.host22.app[0] pingTxSeq:vector:sumweights 8
scalar SimpleConfiguratorNetwork.host22.app[0] pingTxSeq:vector:mean 3.5
scalar SimpleConfiguratorNetwork.host22.app[0] pingTxSeq:vector:stddev 2.4494897427831779
scalar SimpleConfiguratorNetwork.host22.app[0] pingTxSeq:vector:min 0
scalar SimpleConfiguratorNetwork.host22.app[0] pingTxSeq:vector:max 7
scalar SimpleConfiguratorNetwork.host22.app[0] pingTxSeq:vector:starttime 0
scalar SimpleConfiguratorNetwork.host22.app[0] pingTxSeq:vector:endtime 7
scalar SimpleConfiguratorNetwork.host22.app[0] pingRxSeq:vector:count 8
scalar SimpleConfiguratorNetwork.host22.app[0] pingRxSeq:vector:sum 28
scalar SimpleConfiguratorNetwork.host22.app[0] pingRxSeq:vector:sumweights 8
scalar SimpleConfiguratorNetwork.host22.app[0] pingRxSeq:vector:mean 3.5
scalar SimpleConfiguratorNetwork.host22.app[0] pingRxSeq:vector:stddev 2.4494897427831779
scalar SimpleConfiguratorNetwork.host22.app[0] pingRxSeq:vector:min 0
scalar SimpleConfiguratorNetwork.host22.app[0] pingRxSeq:vector:max 7
scalar SimpleConfiguratorNetwork.host22.app[0] pingRxSeq:vector:starttime 3.7660000000000009e-06
scalar SimpleConfiguratorNetwork.host22.app[0] pingRxSeq:vector:endtime 7

