version 3
run General-0-20230411-10:31:55-42673
attr configname General
attr datetime 20230411-10:31:55
attr datetimef 20230411-103155
attr experiment General
attr inifile omnetpp.ini
attr iterationvars ""
attr iterationvarsd ""
attr iterationvarsf ""
attr measurement ""
attr network DemoNetworkEth
attr processid 42673
attr repetition 0
attr replication #0
attr resultdir results
attr runnumber 0
attr seedset 0
config **.param-recording false
config image-path /home/levy/workspace/inet/images
config sim-time-limit 50000s
config sim-time-limit 50000s
config network DemoNetworkEth
config *.n 2
config *.visualizer.interfaceTableVisualizer.displayInterfaceTables true
config *.visualizer.interfaceTableVisualizer.format "\"%N %t %a\""
config *.visualizer.interfaceTableVisualizer.displayBackground true
config *.visualizer.interfaceTableVisualizer.textColor "\"#902020\""
config **.cli[*].numApps 1
config **.cli[*].app[*].typename TelnetApp
config **.cli[*].app[0].localAddress "\"\""
config **.cli[*].app[0].localPort 1000
config **.cli[*].app[0].connectAddress "\"srv[1]\""
config **.cli[*].app[0].connectPort 1000
config **.cli[*].app[0].startTime uniform(10s,15s)
config **.cli[*].app[0].numCommands int(exponential(10))
config **.cli[*].app[0].commandLength intWithUnit(exponential(10B))
config **.cli[*].app[0].keyPressDelay exponential(0.1s)
config **.cli[*].app[0].commandOutputLength intWithUnit(exponential(40B))
config **.cli[*].app[0].thinkTime truncnormal(2s,3s)
config **.cli[*].app[0].idleInterval truncnormal(3600s,1200s)
config **.cli[*].app[0].reconnectInterval 30s
config **.srv[*].numApps 1
config **.srv[*].app[*].typename TcpGenericServerApp
config **.srv[*].app[0].localAddress "\"\""
config **.srv[*].app[0].localPort 1000
config **.srv[*].app[0].replyDelay 0s
config **.eth[*].queue.typename EthernetQosQueue
config **.eth[*].queue.dataQueue.typename DropTailQueue
config **.eth[*].queue.dataQueue.packetCapacity 10
config **.eth[*].duplexMode true

scalar DemoNetworkEth.r1.ethernet pauseSent:count 0
attr recordingmode count
attr title "pause sent, count"
scalar DemoNetworkEth.r1.ethernet pauseSent:sum 0
attr recordingmode sum
attr title "pause sent, sum"
scalar DemoNetworkEth.r1.ethernet decapPk:count 15381
attr interpolationmode none
attr recordingmode count
attr source decapPk
attr title "packets decapsulated, count"
scalar DemoNetworkEth.r1.ethernet decapPk:sum(packetBytes) 951323
attr interpolationmode none
attr recordingmode sum(packetBytes)
attr source decapPk
attr title "packets decapsulated, sum(packetBytes)"
scalar DemoNetworkEth.r1.ethernet encapPk:count 15634
attr interpolationmode none
attr recordingmode count
attr source encapPk
attr title "packets encapsulated, count"
scalar DemoNetworkEth.r1.ethernet encapPk:sum(packetBytes) 977739
attr interpolationmode none
attr recordingmode sum(packetBytes)
attr source encapPk
attr title "packets encapsulated, sum(packetBytes)"
scalar DemoNetworkEth.r1.lo[0].lo rcvdPkFromHl:count 0
attr interpolationmode none
attr recordingmode count
attr source packetReceivedFromUpper
attr title "packets received from higher layer, count"
scalar DemoNetworkEth.r1.lo[0].lo rcvdPkFromHl:sum(packetBytes) 0
attr interpolationmode none
attr recordingmode sum(packetBytes)
attr source packetReceivedFromUpper
attr title "packets received from higher layer, sum(packetBytes)"
scalar DemoNetworkEth.r1.lo[0].lo passedUpPk:count 0
attr interpolationmode none
attr recordingmode count
attr source packetSentToUpper
attr title "packets passed to higher layer, count"
scalar DemoNetworkEth.r1.lo[0].lo passedUpPk:sum(packetBytes) 0
attr interpolationmode none
attr recordingmode sum(packetBytes)
attr source packetSentToUpper
attr title "packets passed to higher layer, sum(packetBytes)"
scalar DemoNetworkEth.r1.lo[0] packetDropInterfaceDown:count 0
attr interpolationmode none
attr recordingmode count
attr source packetDropReasonIsInterfaceDown(packetDropped)
attr title "packet drops: interface down, count"
scalar DemoNetworkEth.r1.lo[0] packetDropInterfaceDown:sum(packetBytes) 0
attr interpolationmode none
attr recordingmode sum(packetBytes)
attr source packetDropReasonIsInterfaceDown(packetDropped)
attr title "packet drops: interface down, sum(packetBytes)"
scalar DemoNetworkEth.r1.lo[0] packetDropNoCarrier:count 0
attr interpolationmode none
attr recordingmode count
attr source packetDropReasonIsNoCarrier(packetDropped)
attr title "packet drops: no carrier, count"
scalar DemoNetworkEth.r1.lo[0] packetDropNoCarrier:sum(packetBytes) 0
attr interpolationmode none
attr recordingmode sum(packetBytes)
attr source packetDropReasonIsNoCarrier(packetDropped)
attr title "packet drops: no carrier, sum(packetBytes)"
scalar DemoNetworkEth.r1.eth[0].queue.classifier packets:count 3623
attr recordingmode count
attr source packetPushed
attr title "packets, count"
attr unit pk
scalar DemoNetworkEth.r1.eth[0].queue.classifier packetLengths:sum 2370304
attr interpolationmode none
attr recordingmode sum
attr source packetLength(packetPushed)
attr title "packet lengths, sum"
attr unit b
statistic DemoNetworkEth.r1.eth[0].queue.classifier packetLengths:histogram
field count 3623
field mean 654.23792437207
field stddev 108.38907628477
field min 624
field max 2184
field sum 2370304
field sqrsum 1593294720
attr interpolationmode none
attr recordingmode histogram
attr source packetLength(packetPushed)
attr title "packet lengths"
attr unit b
bin	-inf	0
bin	530	0
bin	550	0
bin	570	0
bin	590	0
bin	610	1725
bin	630	1553
bin	650	55
bin	670	6
bin	690	8
bin	710	38
bin	730	4
bin	750	13
bin	770	8
bin	790	6
bin	810	5
bin	830	7
bin	850	3
bin	870	3
bin	890	4
bin	910	5
bin	930	3
bin	950	2
bin	970	129
bin	990	3
bin	1010	2
bin	1030	2
bin	1050	1
bin	1070	2
bin	1090	0
bin	1110	2
bin	1130	1
bin	1150	3
bin	1170	1
bin	1190	1
bin	1210	1
bin	1230	3
bin	1250	2
bin	1270	2
bin	1290	0
bin	1310	1
bin	1330	1
bin	1350	1
bin	1370	2
bin	1390	0
bin	1410	0
bin	1430	1
bin	1450	1
bin	1470	1
bin	1490	2
bin	1510	1
bin	1530	0
bin	1550	0
bin	1570	0
bin	1590	1
bin	1610	0
bin	1630	0
bin	1650	1
bin	1670	0
bin	1690	1
bin	1710	1
bin	1730	1
bin	1750	0
bin	1770	1
bin	1790	0
bin	1810	0
bin	1830	2
bin	1850	0
bin	1870	0
bin	1890	0
bin	1910	0
bin	1930	0
bin	1950	0
bin	1970	0
bin	1990	0
bin	2010	0
bin	2030	0
bin	2050	0
bin	2070	0
bin	2090	0
bin	2110	0
bin	2130	0
bin	2150	0
bin	2170	1
bin	2190	0
scalar DemoNetworkEth.r1.eth[0].queue.pauseQueue queueLength:last nan
attr autoWarmupFilter false
attr interpolationmode sample-hold
attr recordingmode last
attr source "warmup(atomic(constant0(packetPushEnded) + count(packetPushStarted) - count(packetPulled) - count(packetRemoved) - count(packetDropped)))"
attr title "queue length, last"
attr unit pk
scalar DemoNetworkEth.r1.eth[0].queue.pauseQueue queueLength:max nan
attr autoWarmupFilter false
attr interpolationmode sample-hold
attr recordingmode max
attr source "warmup(atomic(constant0(packetPushEnded) + count(packetPushStarted) - count(packetPulled) - count(packetRemoved) - count(packetDropped)))"
attr title "queue length, max"
attr unit pk
scalar DemoNetworkEth.r1.eth[0].queue.pauseQueue queueLength:timeavg -nan
attr autoWarmupFilter false
attr interpolationmode sample-hold
attr recordingmode timeavg
attr source "warmup(atomic(constant0(packetPushEnded) + count(packetPushStarted) - count(packetPulled) - count(packetRemoved) - count(packetDropped)))"
attr title "queue length, timeavg"
attr unit pk
scalar DemoNetworkEth.r1.eth[0].queue.pauseQueue queueBitLength:last nan
attr autoWarmupFilter false
attr interpolationmode sample-hold
attr recordingmode last
attr source "warmup(atomic(constant0(packetPushEnded) + sum(packetLength(packetPushStarted)) - sum(packetLength(packetPulled)) - sum(packetLength(packetRemoved)) - sum(packetLength(packetDropped))))"
attr title "queue bit length, last"
attr unit b
scalar DemoNetworkEth.r1.eth[0].queue.pauseQueue queueBitLength:max nan
attr autoWarmupFilter false
attr interpolationmode sample-hold
attr recordingmode max
attr source "warmup(atomic(constant0(packetPushEnded) + sum(packetLength(packetPushStarted)) - sum(packetLength(packetPulled)) - sum(packetLength(packetRemoved)) - sum(packetLength(packetDropped))))"
attr title "queue bit length, max"
attr unit b
scalar DemoNetworkEth.r1.eth[0].queue.pauseQueue queueBitLength:timeavg -nan
attr autoWarmupFilter false
attr interpolationmode sample-hold
attr recordingmode timeavg
attr source "warmup(atomic(constant0(packetPushEnded) + sum(packetLength(packetPushStarted)) - sum(packetLength(packetPulled)) - sum(packetLength(packetRemoved)) - sum(packetLength(packetDropped))))"
attr title "queue bit length, timeavg"
attr unit b
statistic DemoNetworkEth.r1.eth[0].queue.pauseQueue queueingTime:histogram
field count 0
field mean -nan
field stddev nan
field min nan
field max nan
field sum 0
field sqrsum 0
attr interpolationmode none
attr recordingmode histogram
attr source queueingTime(packetPulled)
attr title "queueing times"
attr unit s
bin	-inf	0
bin	0	0
bin	1	0
scalar DemoNetworkEth.r1.eth[0].queue.pauseQueue outgoingPackets:count 0
attr recordingmode count
attr source packetPulled
attr title "outgoing packets, count"
attr unit pk
scalar DemoNetworkEth.r1.eth[0].queue.pauseQueue outgoingPacketLengths:sum 0
attr interpolationmode none
attr recordingmode sum
attr source packetLength(packetPulled)
attr title "outgoing packet lengths, sum"
attr unit b
statistic DemoNetworkEth.r1.eth[0].queue.pauseQueue outgoingPacketLengths:histogram
field count 0
field mean -nan
field stddev nan
field min nan
field max nan
field sum 0
field sqrsum 0
attr interpolationmode none
attr recordingmode histogram
attr source packetLength(packetPulled)
attr title "outgoing packet lengths"
attr unit b
bin	-inf	0
bin	0	0
bin	1	0
statistic DemoNetworkEth.r1.eth[0].queue.pauseQueue flowQueueingTime:histogram
field count 0
field mean -nan
field stddev nan
field min nan
field max nan
field sum 0
field sqrsum 0
attr interpolationmode none
attr recordingmode histogram
attr source queueingTime(demuxFlow(packetPulled))
attr title "flow queueing times"
attr unit s
bin	-inf	0
bin	0	0
bin	1	0
scalar DemoNetworkEth.r1.eth[0].queue.pauseQueue incomingPackets:count 0
attr recordingmode count
attr source packetPushStarted
attr title "incoming packets, count"
attr unit pk
scalar DemoNetworkEth.r1.eth[0].queue.pauseQueue incomingPacketLengths:sum 0
attr interpolationmode none
attr recordingmode sum
attr source packetLength(packetPushStarted)
attr title "incoming packet lengths, sum"
attr unit b
statistic DemoNetworkEth.r1.eth[0].queue.pauseQueue incomingPacketLengths:histogram
field count 0
field mean -nan
field stddev nan
field min nan
field max nan
field sum 0
field sqrsum 0
attr interpolationmode none
attr recordingmode histogram
attr source packetLength(packetPushStarted)
attr title "incoming packet lengths"
attr unit b
bin	-inf	0
bin	0	0
bin	1	0
scalar DemoNetworkEth.r1.eth[0].queue.pauseQueue droppedPacketsQueueOverflow:count 0
attr interpolationmode none
attr recordingmode count
attr source packetDropReasonIsQueueOverflow(packetDropped)
attr title "dropped packets: queue overflow, count"
attr unit pk
scalar DemoNetworkEth.r1.eth[0].queue.pauseQueue droppedPacketLengthsQueueOverflow:sum 0
attr interpolationmode none
attr recordingmode sum
attr source packetLength(packetDropReasonIsQueueOverflow(packetDropped))
attr title "dropped packet lengths: queue overflow, sum"
attr unit b
scalar DemoNetworkEth.r1.eth[0].queue.dataQueue queueLength:last 0
attr autoWarmupFilter false
attr interpolationmode sample-hold
attr recordingmode last
attr source "warmup(atomic(constant0(packetPushEnded) + count(packetPushStarted) - count(packetPulled) - count(packetRemoved) - count(packetDropped)))"
attr title "queue length, last"
attr unit pk
scalar DemoNetworkEth.r1.eth[0].queue.dataQueue queueLength:max 0
attr autoWarmupFilter false
attr interpolationmode sample-hold
attr recordingmode max
attr source "warmup(atomic(constant0(packetPushEnded) + count(packetPushStarted) - count(packetPulled) - count(packetRemoved) - count(packetDropped)))"
attr title "queue length, max"
attr unit pk
scalar DemoNetworkEth.r1.eth[0].queue.dataQueue queueLength:timeavg 0
attr autoWarmupFilter false
attr interpolationmode sample-hold
attr recordingmode timeavg
attr source "warmup(atomic(constant0(packetPushEnded) + count(packetPushStarted) - count(packetPulled) - count(packetRemoved) - count(packetDropped)))"
attr title "queue length, timeavg"
attr unit pk
scalar DemoNetworkEth.r1.eth[0].queue.dataQueue queueBitLength:last 0
attr autoWarmupFilter false
attr interpolationmode sample-hold
attr recordingmode last
attr source "warmup(atomic(constant0(packetPushEnded) + sum(packetLength(packetPushStarted)) - sum(packetLength(packetPulled)) - sum(packetLength(packetRemoved)) - sum(packetLength(packetDropped))))"
attr title "queue bit length, last"
attr unit b
scalar DemoNetworkEth.r1.eth[0].queue.dataQueue queueBitLength:max 0
attr autoWarmupFilter false
attr interpolationmode sample-hold
attr recordingmode max
attr source "warmup(atomic(constant0(packetPushEnded) + sum(packetLength(packetPushStarted)) - sum(packetLength(packetPulled)) - sum(packetLength(packetRemoved)) - sum(packetLength(packetDropped))))"
attr title "queue bit length, max"
attr unit b
scalar DemoNetworkEth.r1.eth[0].queue.dataQueue queueBitLength:timeavg 0
attr autoWarmupFilter false
attr interpolationmode sample-hold
attr recordingmode timeavg
attr source "warmup(atomic(constant0(packetPushEnded) + sum(packetLength(packetPushStarted)) - sum(packetLength(packetPulled)) - sum(packetLength(packetRemoved)) - sum(packetLength(packetDropped))))"
attr title "queue bit length, timeavg"
attr unit b
statistic DemoNetworkEth.r1.eth[0].queue.dataQueue queueingTime:histogram
field count 3623
field mean 0
field stddev 0
field min 0
field max 0
field sum 0
field sqrsum 0
attr interpolationmode none
attr recordingmode histogram
attr source queueingTime(packetPulled)
attr title "queueing times"
attr unit s
bin	-inf	0
bin	-0.5	0
bin	-0.48	0
bin	-0.46	0
bin	-0.44	0
bin	-0.42	0
bin	-0.4	0
bin	-0.38	0
bin	-0.36	0
bin	-0.34	0
bin	-0.32	0
bin	-0.3	0
bin	-0.28	0
bin	-0.26	0
bin	-0.24	0
bin	-0.22	0
bin	-0.2	0
bin	-0.18	0
bin	-0.16	0
bin	-0.14	0
bin	-0.12	0
bin	-0.1	0
bin	-0.08	0
bin	-0.06	0
bin	-0.04	0
bin	-0.02	0
bin	0	3623
bin	0.02	0
bin	0.04	0
bin	0.06	0
bin	0.08	0
bin	0.1	0
bin	0.12	0
bin	0.14	0
bin	0.16	0
bin	0.18	0
bin	0.2	0
bin	0.22	0
bin	0.24	0
bin	0.26	0
bin	0.28	0
bin	0.3	0
bin	0.32	0
bin	0.34	0
bin	0.36	0
bin	0.38	0
bin	0.4	0
bin	0.42	0
bin	0.44	0
bin	0.46	0
bin	0.48	0
bin	0.5	0
scalar DemoNetworkEth.r1.eth[0].queue.dataQueue outgoingPackets:count 3623
attr recordingmode count
attr source packetPulled
attr title "outgoing packets, count"
attr unit pk
scalar DemoNetworkEth.r1.eth[0].queue.dataQueue outgoingPacketLengths:sum 2370304
attr interpolationmode none
attr recordingmode sum
attr source packetLength(packetPulled)
attr title "outgoing packet lengths, sum"
attr unit b
statistic DemoNetworkEth.r1.eth[0].queue.dataQueue outgoingPacketLengths:histogram
field count 3623
field mean 654.23792437207
field stddev 108.38907628477
field min 624
field max 2184
field sum 2370304
field sqrsum 1593294720
attr interpolationmode none
attr recordingmode histogram
attr source packetLength(packetPulled)
attr title "outgoing packet lengths"
attr unit b
bin	-inf	0
bin	530	0
bin	550	0
bin	570	0
bin	590	0
bin	610	1725
bin	630	1553
bin	650	55
bin	670	6
bin	690	8
bin	710	38
bin	730	4
bin	750	13
bin	770	8
bin	790	6
bin	810	5
bin	830	7
bin	850	3
bin	870	3
bin	890	4
bin	910	5
bin	930	3
bin	950	2
bin	970	129
bin	990	3
bin	1010	2
bin	1030	2
bin	1050	1
bin	1070	2
bin	1090	0
bin	1110	2
bin	1130	1
bin	1150	3
bin	1170	1
bin	1190	1
bin	1210	1
bin	1230	3
bin	1250	2
bin	1270	2
bin	1290	0
bin	1310	1
bin	1330	1
bin	1350	1
bin	1370	2
bin	1390	0
bin	1410	0
bin	1430	1
bin	1450	1
bin	1470	1
bin	1490	2
bin	1510	1
bin	1530	0
bin	1550	0
bin	1570	0
bin	1590	1
bin	1610	0
bin	1630	0
bin	1650	1
bin	1670	0
bin	1690	1
bin	1710	1
bin	1730	1
bin	1750	0
bin	1770	1
bin	1790	0
bin	1810	0
bin	1830	2
bin	1850	0
bin	1870	0
bin	1890	0
bin	1910	0
bin	1930	0
bin	1950	0
bin	1970	0
bin	1990	0
bin	2010	0
bin	2030	0
bin	2050	0
bin	2070	0
bin	2090	0
bin	2110	0
bin	2130	0
bin	2150	0
bin	2170	1
bin	2190	0
statistic DemoNetworkEth.r1.eth[0].queue.dataQueue flowQueueingTime:histogram
field count 0
field mean -nan
field stddev nan
field min nan
field max nan
field sum 0
field sqrsum 0
attr interpolationmode none
attr recordingmode histogram
attr source queueingTime(demuxFlow(packetPulled))
attr title "flow queueing times"
attr unit s
bin	-inf	0
bin	0	0
bin	1	0
scalar DemoNetworkEth.r1.eth[0].queue.dataQueue incomingPackets:count 3623
attr recordingmode count
attr source packetPushStarted
attr title "incoming packets, count"
attr unit pk
scalar DemoNetworkEth.r1.eth[0].queue.dataQueue incomingPacketLengths:sum 2370304
attr interpolationmode none
attr recordingmode sum
attr source packetLength(packetPushStarted)
attr title "incoming packet lengths, sum"
attr unit b
statistic DemoNetworkEth.r1.eth[0].queue.dataQueue incomingPacketLengths:histogram
field count 3623
field mean 654.23792437207
field stddev 108.38907628477
field min 624
field max 2184
field sum 2370304
field sqrsum 1593294720
attr interpolationmode none
attr recordingmode histogram
attr source packetLength(packetPushStarted)
attr title "incoming packet lengths"
attr unit b
bin	-inf	0
bin	530	0
bin	550	0
bin	570	0
bin	590	0
bin	610	1725
bin	630	1553
bin	650	55
bin	670	6
bin	690	8
bin	710	38
bin	730	4
bin	750	13
bin	770	8
bin	790	6
bin	810	5
bin	830	7
bin	850	3
bin	870	3
bin	890	4
bin	910	5
bin	930	3
bin	950	2
bin	970	129
bin	990	3
bin	1010	2
bin	1030	2
bin	1050	1
bin	1070	2
bin	1090	0
bin	1110	2
bin	1130	1
bin	1150	3
bin	1170	1
bin	1190	1
bin	1210	1
bin	1230	3
bin	1250	2
bin	1270	2
bin	1290	0
bin	1310	1
bin	1330	1
bin	1350	1
bin	1370	2
bin	1390	0
bin	1410	0
bin	1430	1
bin	1450	1
bin	1470	1
bin	1490	2
bin	1510	1
bin	1530	0
bin	1550	0
bin	1570	0
bin	1590	1
bin	1610	0
bin	1630	0
bin	1650	1
bin	1670	0
bin	1690	1
bin	1710	1
bin	1730	1
bin	1750	0
bin	1770	1
bin	1790	0
bin	1810	0
bin	1830	2
bin	1850	0
bin	1870	0
bin	1890	0
bin	1910	0
bin	1930	0
bin	1950	0
bin	1970	0
bin	1990	0
bin	2010	0
bin	2030	0
bin	2050	0
bin	2070	0
bin	2090	0
bin	2110	0
bin	2130	0
bin	2150	0
bin	2170	1
bin	2190	0
scalar DemoNetworkEth.r1.eth[0].queue.dataQueue droppedPacketsQueueOverflow:count 0
attr interpolationmode none
attr recordingmode count
attr source packetDropReasonIsQueueOverflow(packetDropped)
attr title "dropped packets: queue overflow, count"
attr unit pk
scalar DemoNetworkEth.r1.eth[0].queue.dataQueue droppedPacketLengthsQueueOverflow:sum 0
attr interpolationmode none
attr recordingmode sum
attr source packetLength(packetDropReasonIsQueueOverflow(packetDropped))
attr title "dropped packet lengths: queue overflow, sum"
attr unit b
scalar DemoNetworkEth.r1.eth[0].queue.scheduler packets:count 3623
attr recordingmode count
attr source packetPulled
attr title "packets, count"
attr unit pk
scalar DemoNetworkEth.r1.eth[0].queue.scheduler packetLengths:sum 2370304
attr interpolationmode none
attr recordingmode sum
attr source packetLength(packetPulled)
attr title "packet lengths, sum"
attr unit b
statistic DemoNetworkEth.r1.eth[0].queue.scheduler packetLengths:histogram
field count 3623
field mean 654.23792437207
field stddev 108.38907628477
field min 624
field max 2184
field sum 2370304
field sqrsum 1593294720
attr interpolationmode none
attr recordingmode histogram
attr source packetLength(packetPulled)
attr title "packet lengths"
attr unit b
bin	-inf	0
bin	530	0
bin	550	0
bin	570	0
bin	590	0
bin	610	1725
bin	630	1553
bin	650	55
bin	670	6
bin	690	8
bin	710	38
bin	730	4
bin	750	13
bin	770	8
bin	790	6
bin	810	5
bin	830	7
bin	850	3
bin	870	3
bin	890	4
bin	910	5
bin	930	3
bin	950	2
bin	970	129
bin	990	3
bin	1010	2
bin	1030	2
bin	1050	1
bin	1070	2
bin	1090	0
bin	1110	2
bin	1130	1
bin	1150	3
bin	1170	1
bin	1190	1
bin	1210	1
bin	1230	3
bin	1250	2
bin	1270	2
bin	1290	0
bin	1310	1
bin	1330	1
bin	1350	1
bin	1370	2
bin	1390	0
bin	1410	0
bin	1430	1
bin	1450	1
bin	1470	1
bin	1490	2
bin	1510	1
bin	1530	0
bin	1550	0
bin	1570	0
bin	1590	1
bin	1610	0
bin	1630	0
bin	1650	1
bin	1670	0
bin	1690	1
bin	1710	1
bin	1730	1
bin	1750	0
bin	1770	1
bin	1790	0
bin	1810	0
bin	1830	2
bin	1850	0
bin	1870	0
bin	1890	0
bin	1910	0
bin	1930	0
bin	1950	0
bin	1970	0
bin	1990	0
bin	2010	0
bin	2030	0
bin	2050	0
bin	2070	0
bin	2090	0
bin	2110	0
bin	2130	0
bin	2150	0
bin	2170	1
bin	2190	0
scalar DemoNetworkEth.r1.eth[0].queue queueLength:last nan
attr autoWarmupFilter false
attr interpolationmode sample-hold
attr recordingmode last
attr source "warmup(atomic(constant0(localSignal(packetPushEnded)) + count(localSignal(packetPushStarted)) - count(localSignal(packetPulled)) - count(localSignal(packetRemoved)) - count(localSignal(packetDropped))))"
attr title "queue length, last"
attr unit pk
scalar DemoNetworkEth.r1.eth[0].queue queueLength:max nan
attr autoWarmupFilter false
attr interpolationmode sample-hold
attr recordingmode max
attr source "warmup(atomic(constant0(localSignal(packetPushEnded)) + count(localSignal(packetPushStarted)) - count(localSignal(packetPulled)) - count(localSignal(packetRemoved)) - count(localSignal(packetDropped))))"
attr title "queue length, max"
attr unit pk
scalar DemoNetworkEth.r1.eth[0].queue queueLength:timeavg -nan
attr autoWarmupFilter false
attr interpolationmode sample-hold
attr recordingmode timeavg
attr source "warmup(atomic(constant0(localSignal(packetPushEnded)) + count(localSignal(packetPushStarted)) - count(localSignal(packetPulled)) - count(localSignal(packetRemoved)) - count(localSignal(packetDropped))))"
attr title "queue length, timeavg"
attr unit pk
scalar DemoNetworkEth.r1.eth[0].queue queueBitLength:last nan
attr autoWarmupFilter false
attr interpolationmode sample-hold
attr recordingmode last
attr source "warmup(atomic(constant0(localSignal(packetPushEnded)) + sum(packetLength(localSignal(packetPushStarted))) - sum(packetLength(localSignal(packetPulled))) - sum(packetLength(localSignal(packetRemoved))) - sum(packetLength(localSignal(packetDropped)))))"
attr title "queue bit length, last"
attr unit b
scalar DemoNetworkEth.r1.eth[0].queue queueBitLength:max nan
attr autoWarmupFilter false
attr interpolationmode sample-hold
attr recordingmode max
attr source "warmup(atomic(constant0(localSignal(packetPushEnded)) + sum(packetLength(localSignal(packetPushStarted))) - sum(packetLength(localSignal(packetPulled))) - sum(packetLength(localSignal(packetRemoved))) - sum(packetLength(localSignal(packetDropped)))))"
attr title "queue bit length, max"
attr unit b
scalar DemoNetworkEth.r1.eth[0].queue queueBitLength:timeavg -nan
attr autoWarmupFilter false
attr interpolationmode sample-hold
attr recordingmode timeavg
attr source "warmup(atomic(constant0(localSignal(packetPushEnded)) + sum(packetLength(localSignal(packetPushStarted))) - sum(packetLength(localSignal(packetPulled))) - sum(packetLength(localSignal(packetRemoved))) - sum(packetLength(localSignal(packetDropped)))))"
attr title "queue bit length, timeavg"
attr unit b
statistic DemoNetworkEth.r1.eth[0].queue queueingTime:histogram
field count 3623
field mean 0
field stddev 0
field min 0
field max 0
field sum 0
field sqrsum 0
attr interpolationmode none
attr recordingmode histogram
attr source queueingTime(localSignal(packetPulled))
attr title "queueing times"
attr unit s
bin	-inf	0
bin	-0.5	0
bin	-0.48	0
bin	-0.46	0
bin	-0.44	0
bin	-0.42	0
bin	-0.4	0
bin	-0.38	0
bin	-0.36	0
bin	-0.34	0
bin	-0.32	0
bin	-0.3	0
bin	-0.28	0
bin	-0.26	0
bin	-0.24	0
bin	-0.22	0
bin	-0.2	0
bin	-0.18	0
bin	-0.16	0
bin	-0.14	0
bin	-0.12	0
bin	-0.1	0
bin	-0.08	0
bin	-0.06	0
bin	-0.04	0
bin	-0.02	0
bin	0	3623
bin	0.02	0
bin	0.04	0
bin	0.06	0
bin	0.08	0
bin	0.1	0
bin	0.12	0
bin	0.14	0
bin	0.16	0
bin	0.18	0
bin	0.2	0
bin	0.22	0
bin	0.24	0
bin	0.26	0
bin	0.28	0
bin	0.3	0
bin	0.32	0
bin	0.34	0
bin	0.36	0
bin	0.38	0
bin	0.4	0
bin	0.42	0
bin	0.44	0
bin	0.46	0
bin	0.48	0
bin	0.5	0
scalar DemoNetworkEth.r1.eth[0].queue outgoingPackets:count 3623
attr recordingmode count
attr source localSignal(packetPulled)
attr title "outgoing packets, count"
attr unit pk
scalar DemoNetworkEth.r1.eth[0].queue outgoingPacketLengths:sum 2370304
attr interpolationmode none
attr recordingmode sum
attr source packetLength(localSignal(packetPulled))
attr title "outgoing packet lengths, sum"
attr unit b
statistic DemoNetworkEth.r1.eth[0].queue outgoingPacketLengths:histogram
field count 3623
field mean 654.23792437207
field stddev 108.38907628477
field min 624
field max 2184
field sum 2370304
field sqrsum 1593294720
attr interpolationmode none
attr recordingmode histogram
attr source packetLength(localSignal(packetPulled))
attr title "outgoing packet lengths"
attr unit b
bin	-inf	0
bin	530	0
bin	550	0
bin	570	0
bin	590	0
bin	610	1725
bin	630	1553
bin	650	55
bin	670	6
bin	690	8
bin	710	38
bin	730	4
bin	750	13
bin	770	8
bin	790	6
bin	810	5
bin	830	7
bin	850	3
bin	870	3
bin	890	4
bin	910	5
bin	930	3
bin	950	2
bin	970	129
bin	990	3
bin	1010	2
bin	1030	2
bin	1050	1
bin	1070	2
bin	1090	0
bin	1110	2
bin	1130	1
bin	1150	3
bin	1170	1
bin	1190	1
bin	1210	1
bin	1230	3
bin	1250	2
bin	1270	2
bin	1290	0
bin	1310	1
bin	1330	1
bin	1350	1
bin	1370	2
bin	1390	0
bin	1410	0
bin	1430	1
bin	1450	1
bin	1470	1
bin	1490	2
bin	1510	1
bin	1530	0
bin	1550	0
bin	1570	0
bin	1590	1
bin	1610	0
bin	1630	0
bin	1650	1
bin	1670	0
bin	1690	1
bin	1710	1
bin	1730	1
bin	1750	0
bin	1770	1
bin	1790	0
bin	1810	0
bin	1830	2
bin	1850	0
bin	1870	0
bin	1890	0
bin	1910	0
bin	1930	0
bin	1950	0
bin	1970	0
bin	1990	0
bin	2010	0
bin	2030	0
bin	2050	0
bin	2070	0
bin	2090	0
bin	2110	0
bin	2130	0
bin	2150	0
bin	2170	1
bin	2190	0
statistic DemoNetworkEth.r1.eth[0].queue flowQueueingTime:histogram
field count 0
field mean -nan
field stddev nan
field min nan
field max nan
field sum 0
field sqrsum 0
attr interpolationmode none
attr recordingmode histogram
attr source queueingTime(demuxFlow(localSignal(packetPulled)))
attr title "flow queueing times"
attr unit s
bin	-inf	0
bin	0	0
bin	1	0
scalar DemoNetworkEth.r1.eth[0].queue incomingPackets:count 0
attr recordingmode count
attr source localSignal(packetPushStarted)
attr title "incoming packets, count"
attr unit pk
scalar DemoNetworkEth.r1.eth[0].queue incomingPacketLengths:sum 0
attr interpolationmode none
attr recordingmode sum
attr source packetLength(localSignal(packetPushStarted))
attr title "incoming packet lengths, sum"
attr unit b
statistic DemoNetworkEth.r1.eth[0].queue incomingPacketLengths:histogram
field count 0
field mean -nan
field stddev nan
field min nan
field max nan
field sum 0
field sqrsum 0
attr interpolationmode none
attr recordingmode histogram
attr source packetLength(localSignal(packetPushStarted))
attr title "incoming packet lengths"
attr unit b
bin	-inf	0
bin	0	0
bin	1	0
scalar DemoNetworkEth.r1.eth[0].queue droppedPacketsQueueOverflow:count 0
attr interpolationmode none
attr recordingmode count
attr source packetDropReasonIsQueueOverflow(localSignal(packetDropped))
attr title "dropped packets: queue overflow, count"
attr unit pk
scalar DemoNetworkEth.r1.eth[0].queue droppedPacketLengthsQueueOverflow:sum 0
attr interpolationmode none
attr recordingmode sum
attr source packetLength(packetDropReasonIsQueueOverflow(localSignal(packetDropped)))
attr title "dropped packet lengths: queue overflow, sum"
attr unit b
scalar DemoNetworkEth.r1.eth[0].mac "simulated time" 50000
scalar DemoNetworkEth.r1.eth[0].mac full-duplex 1
scalar DemoNetworkEth.r1.eth[0].mac "frames/sec sent" 0.07246
scalar DemoNetworkEth.r1.eth[0].mac "frames/sec rcvd" 0.07024
scalar DemoNetworkEth.r1.eth[0].mac "bits/sec sent" 47.40608
scalar DemoNetworkEth.r1.eth[0].mac "bits/sec rcvd" 44.18768
scalar DemoNetworkEth.r1.eth[0].mac "rx channel idle (%)" 99.9995131696
scalar DemoNetworkEth.r1.eth[0].mac "rx channel utilization (%)" 0.0004868304
scalar DemoNetworkEth.r1.eth[0].mac rxPausePkUnits:count 0
attr interpolationmode none
attr recordingmode count
attr title "pause units received, count"
scalar DemoNetworkEth.r1.eth[0].mac rxPausePkUnits:sum 0
attr interpolationmode none
attr recordingmode sum
attr title "pause units received, sum"
scalar DemoNetworkEth.r1.eth[0].mac txPausePkUnits:count 0
attr interpolationmode none
attr recordingmode count
attr title "pause units sent, count"
scalar DemoNetworkEth.r1.eth[0].mac txPausePkUnits:sum 0
attr interpolationmode none
attr recordingmode sum
attr title "pause units sent, sum"
scalar DemoNetworkEth.r1.eth[0].mac rxPkOk:count 3512
attr interpolationmode none
attr recordingmode count
attr source rxPkOk
attr title "packets received OK, count"
scalar DemoNetworkEth.r1.eth[0].mac rxPkOk:sum(packetBytes) 276173
attr interpolationmode none
attr recordingmode sum(packetBytes)
attr source rxPkOk
attr title "packets received OK, sum(packetBytes)"
scalar DemoNetworkEth.r1.eth[0].mac txPk:count 3623
attr interpolationmode none
attr recordingmode count
attr source packetSentToLower
attr title "packets transmitted, count"
scalar DemoNetworkEth.r1.eth[0].mac txPk:sum(packetBytes) 296288
attr interpolationmode none
attr recordingmode sum(packetBytes)
attr source packetSentToLower
attr title "packets transmitted, sum(packetBytes)"
scalar DemoNetworkEth.r1.eth[0].mac packetReceivedFromUpper:count 3623
attr interpolationmode none
attr recordingmode count
attr source packetReceivedFromUpper
attr title "packet bytes from higher layer, count"
scalar DemoNetworkEth.r1.eth[0].mac packetReceivedFromUpper:sum(packetBytes) 296288
attr interpolationmode none
attr recordingmode sum(packetBytes)
attr source packetReceivedFromUpper
attr title "packet bytes from higher layer, sum(packetBytes)"
scalar DemoNetworkEth.r1.eth[0].mac passedUpPk:count 3512
attr interpolationmode none
attr recordingmode count
attr source packetSentToUpper
attr title "packets passed to higher layer, count"
scalar DemoNetworkEth.r1.eth[0].mac passedUpPk:sum(packetBytes) 276173
attr interpolationmode none
attr recordingmode sum(packetBytes)
attr source packetSentToUpper
attr title "packets passed to higher layer, sum(packetBytes)"
scalar DemoNetworkEth.r1.eth[0].mac packetDropIncorrectlyReceived:count 0
attr interpolationmode none
attr recordingmode count
attr source packetDropReasonIsIncorrectlyReceived(packetDropped)
attr title "packet drop: incorrectly received, count"
scalar DemoNetworkEth.r1.eth[0].mac packetDropIncorrectlyReceived:sum(packetBytes) 0
attr interpolationmode none
attr recordingmode sum(packetBytes)
attr source packetDropReasonIsIncorrectlyReceived(packetDropped)
attr title "packet drop: incorrectly received, sum(packetBytes)"
scalar DemoNetworkEth.r1.eth[0].mac packetDropInterfaceDown:count 0
attr interpolationmode none
attr recordingmode count
attr source packetDropReasonIsInterfaceDown(packetDropped)
attr title "packet drop: interface down, count"
scalar DemoNetworkEth.r1.eth[0].mac packetDropInterfaceDown:sum(packetBytes) 0
attr interpolationmode none
attr recordingmode sum(packetBytes)
attr source packetDropReasonIsInterfaceDown(packetDropped)
attr title "packet drop: interface down, sum(packetBytes)"
scalar DemoNetworkEth.r1.eth[0].mac packetDropNotAddressedToUs:count 0
attr interpolationmode none
attr recordingmode count
attr source packetDropReasonIsNotAddressedToUs(packetDropped)
attr title "packet drop: not addressed to us, count"
scalar DemoNetworkEth.r1.eth[0].mac packetDropNotAddressedToUs:sum(packetBytes) 0
attr interpolationmode none
attr recordingmode sum(packetBytes)
attr source packetDropReasonIsNotAddressedToUs(packetDropped)
attr title "packet drop: not addressed to us, sum(packetBytes)"
scalar DemoNetworkEth.r1.eth[0] packetDropInterfaceDown:count 0
attr interpolationmode none
attr recordingmode count
attr source packetDropReasonIsInterfaceDown(packetDropped)
attr title "packet drops: interface down, count"
scalar DemoNetworkEth.r1.eth[0] packetDropInterfaceDown:sum(packetBytes) 0
attr interpolationmode none
attr recordingmode sum(packetBytes)
attr source packetDropReasonIsInterfaceDown(packetDropped)
attr title "packet drops: interface down, sum(packetBytes)"
scalar DemoNetworkEth.r1.eth[0] packetDropNoCarrier:count 0
attr interpolationmode none
attr recordingmode count
attr source packetDropReasonIsNoCarrier(packetDropped)
attr title "packet drops: no carrier, count"
scalar DemoNetworkEth.r1.eth[0] packetDropNoCarrier:sum(packetBytes) 0
attr interpolationmode none
attr recordingmode sum(packetBytes)
attr source packetDropReasonIsNoCarrier(packetDropped)
attr title "packet drops: no carrier, sum(packetBytes)"
scalar DemoNetworkEth.r1.eth[1].queue.classifier packets:count 4243
attr recordingmode count
attr source packetPushed
attr title "packets, count"
attr unit pk
scalar DemoNetworkEth.r1.eth[1].queue.classifier packetLengths:sum 2773040
attr interpolationmode none
attr recordingmode sum
attr source packetLength(packetPushed)
attr title "packet lengths, sum"
attr unit b
statistic DemoNetworkEth.r1.eth[1].queue.classifier packetLengths:histogram
field count 4243
field mean 653.55644591091
field stddev 108.21935530057
field min 624
field max 2088
field sum 2773040
field sqrsum 1862018048
attr interpolationmode none
attr recordingmode histogram
attr source packetLength(packetPushed)
attr title "packet lengths"
attr unit b
bin	-inf	0
bin	250	0
bin	300	0
bin	350	0
bin	400	0
bin	450	0
bin	500	0
bin	550	0
bin	600	3857
bin	650	72
bin	700	50
bin	750	19
bin	800	23
bin	850	16
bin	900	11
bin	950	138
bin	1000	8
bin	1050	6
bin	1100	8
bin	1150	2
bin	1200	4
bin	1250	2
bin	1300	6
bin	1350	4
bin	1400	1
bin	1450	5
bin	1500	1
bin	1550	2
bin	1600	1
bin	1650	1
bin	1700	0
bin	1750	1
bin	1800	0
bin	1850	1
bin	1900	1
bin	1950	1
bin	2000	0
bin	2050	2
bin	2100	0
bin	2150	0
bin	2200	0
bin	2250	0
bin	2300	0
bin	2350	0
bin	2400	0
bin	2450	0
scalar DemoNetworkEth.r1.eth[1].queue.pauseQueue queueLength:last nan
attr autoWarmupFilter false
attr interpolationmode sample-hold
attr recordingmode last
attr source "warmup(atomic(constant0(packetPushEnded) + count(packetPushStarted) - count(packetPulled) - count(packetRemoved) - count(packetDropped)))"
attr title "queue length, last"
attr unit pk
scalar DemoNetworkEth.r1.eth[1].queue.pauseQueue queueLength:max nan
attr autoWarmupFilter false
attr interpolationmode sample-hold
attr recordingmode max
attr source "warmup(atomic(constant0(packetPushEnded) + count(packetPushStarted) - count(packetPulled) - count(packetRemoved) - count(packetDropped)))"
attr title "queue length, max"
attr unit pk
scalar DemoNetworkEth.r1.eth[1].queue.pauseQueue queueLength:timeavg -nan
attr autoWarmupFilter false
attr interpolationmode sample-hold
attr recordingmode timeavg
attr source "warmup(atomic(constant0(packetPushEnded) + count(packetPushStarted) - count(packetPulled) - count(packetRemoved) - count(packetDropped)))"
attr title "queue length, timeavg"
attr unit pk
scalar DemoNetworkEth.r1.eth[1].queue.pauseQueue queueBitLength:last nan
attr autoWarmupFilter false
attr interpolationmode sample-hold
attr recordingmode last
attr source "warmup(atomic(constant0(packetPushEnded) + sum(packetLength(packetPushStarted)) - sum(packetLength(packetPulled)) - sum(packetLength(packetRemoved)) - sum(packetLength(packetDropped))))"
attr title "queue bit length, last"
attr unit b
scalar DemoNetworkEth.r1.eth[1].queue.pauseQueue queueBitLength:max nan
attr autoWarmupFilter false
attr interpolationmode sample-hold
attr recordingmode max
attr source "warmup(atomic(constant0(packetPushEnded) + sum(packetLength(packetPushStarted)) - sum(packetLength(packetPulled)) - sum(packetLength(packetRemoved)) - sum(packetLength(packetDropped))))"
attr title "queue bit length, max"
attr unit b
scalar DemoNetworkEth.r1.eth[1].queue.pauseQueue queueBitLength:timeavg -nan
attr autoWarmupFilter false
attr interpolationmode sample-hold
attr recordingmode timeavg
attr source "warmup(atomic(constant0(packetPushEnded) + sum(packetLength(packetPushStarted)) - sum(packetLength(packetPulled)) - sum(packetLength(packetRemoved)) - sum(packetLength(packetDropped))))"
attr title "queue bit length, timeavg"
attr unit b
statistic DemoNetworkEth.r1.eth[1].queue.pauseQueue queueingTime:histogram
field count 0
field mean -nan
field stddev nan
field min nan
field max nan
field sum 0
field sqrsum 0
attr interpolationmode none
attr recordingmode histogram
attr source queueingTime(packetPulled)
attr title "queueing times"
attr unit s
bin	-inf	0
bin	0	0
bin	1	0
scalar DemoNetworkEth.r1.eth[1].queue.pauseQueue outgoingPackets:count 0
attr recordingmode count
attr source packetPulled
attr title "outgoing packets, count"
attr unit pk
scalar DemoNetworkEth.r1.eth[1].queue.pauseQueue outgoingPacketLengths:sum 0
attr interpolationmode none
attr recordingmode sum
attr source packetLength(packetPulled)
attr title "outgoing packet lengths, sum"
attr unit b
statistic DemoNetworkEth.r1.eth[1].queue.pauseQueue outgoingPacketLengths:histogram
field count 0
field mean -nan
field stddev nan
field min nan
field max nan
field sum 0
field sqrsum 0
attr interpolationmode none
attr recordingmode histogram
attr source packetLength(packetPulled)
attr title "outgoing packet lengths"
attr unit b
bin	-inf	0
bin	0	0
bin	1	0
statistic DemoNetworkEth.r1.eth[1].queue.pauseQueue flowQueueingTime:histogram
field count 0
field mean -nan
field stddev nan
field min nan
field max nan
field sum 0
field sqrsum 0
attr interpolationmode none
attr recordingmode histogram
attr source queueingTime(demuxFlow(packetPulled))
attr title "flow queueing times"
attr unit s
bin	-inf	0
bin	0	0
bin	1	0
scalar DemoNetworkEth.r1.eth[1].queue.pauseQueue incomingPackets:count 0
attr recordingmode count
attr source packetPushStarted
attr title "incoming packets, count"
attr unit pk
scalar DemoNetworkEth.r1.eth[1].queue.pauseQueue incomingPacketLengths:sum 0
attr interpolationmode none
attr recordingmode sum
attr source packetLength(packetPushStarted)
attr title "incoming packet lengths, sum"
attr unit b
statistic DemoNetworkEth.r1.eth[1].queue.pauseQueue incomingPacketLengths:histogram
field count 0
field mean -nan
field stddev nan
field min nan
field max nan
field sum 0
field sqrsum 0
attr interpolationmode none
attr recordingmode histogram
attr source packetLength(packetPushStarted)
attr title "incoming packet lengths"
attr unit b
bin	-inf	0
bin	0	0
bin	1	0
scalar DemoNetworkEth.r1.eth[1].queue.pauseQueue droppedPacketsQueueOverflow:count 0
attr interpolationmode none
attr recordingmode count
attr source packetDropReasonIsQueueOverflow(packetDropped)
attr title "dropped packets: queue overflow, count"
attr unit pk
scalar DemoNetworkEth.r1.eth[1].queue.pauseQueue droppedPacketLengthsQueueOverflow:sum 0
attr interpolationmode none
attr recordingmode sum
attr source packetLength(packetDropReasonIsQueueOverflow(packetDropped))
attr title "dropped packet lengths: queue overflow, sum"
attr unit b
scalar DemoNetworkEth.r1.eth[1].queue.dataQueue queueLength:last 0
attr autoWarmupFilter false
attr interpolationmode sample-hold
attr recordingmode last
attr source "warmup(atomic(constant0(packetPushEnded) + count(packetPushStarted) - count(packetPulled) - count(packetRemoved) - count(packetDropped)))"
attr title "queue length, last"
attr unit pk
scalar DemoNetworkEth.r1.eth[1].queue.dataQueue queueLength:max 0
attr autoWarmupFilter false
attr interpolationmode sample-hold
attr recordingmode max
attr source "warmup(atomic(constant0(packetPushEnded) + count(packetPushStarted) - count(packetPulled) - count(packetRemoved) - count(packetDropped)))"
attr title "queue length, max"
attr unit pk
scalar DemoNetworkEth.r1.eth[1].queue.dataQueue queueLength:timeavg 0
attr autoWarmupFilter false
attr interpolationmode sample-hold
attr recordingmode timeavg
attr source "warmup(atomic(constant0(packetPushEnded) + count(packetPushStarted) - count(packetPulled) - count(packetRemoved) - count(packetDropped)))"
attr title "queue length, timeavg"
attr unit pk
scalar DemoNetworkEth.r1.eth[1].queue.dataQueue queueBitLength:last 0
attr autoWarmupFilter false
attr interpolationmode sample-hold
attr recordingmode last
attr source "warmup(atomic(constant0(packetPushEnded) + sum(packetLength(packetPushStarted)) - sum(packetLength(packetPulled)) - sum(packetLength(packetRemoved)) - sum(packetLength(packetDropped))))"
attr title "queue bit length, last"
attr unit b
scalar DemoNetworkEth.r1.eth[1].queue.dataQueue queueBitLength:max 0
attr autoWarmupFilter false
attr interpolationmode sample-hold
attr recordingmode max
attr source "warmup(atomic(constant0(packetPushEnded) + sum(packetLength(packetPushStarted)) - sum(packetLength(packetPulled)) - sum(packetLength(packetRemoved)) - sum(packetLength(packetDropped))))"
attr title "queue bit length, max"
attr unit b
scalar DemoNetworkEth.r1.eth[1].queue.dataQueue queueBitLength:timeavg 0
attr autoWarmupFilter false
attr interpolationmode sample-hold
attr recordingmode timeavg
attr source "warmup(atomic(constant0(packetPushEnded) + sum(packetLength(packetPushStarted)) - sum(packetLength(packetPulled)) - sum(packetLength(packetRemoved)) - sum(packetLength(packetDropped))))"
attr title "queue bit length, timeavg"
attr unit b
statistic DemoNetworkEth.r1.eth[1].queue.dataQueue queueingTime:histogram
field count 4243
field mean 0
field stddev 0
field min 0
field max 0
field sum 0
field sqrsum 0
attr interpolationmode none
attr recordingmode histogram
attr source queueingTime(packetPulled)
attr title "queueing times"
attr unit s
bin	-inf	0
bin	-0.5	0
bin	-0.48	0
bin	-0.46	0
bin	-0.44	0
bin	-0.42	0
bin	-0.4	0
bin	-0.38	0
bin	-0.36	0
bin	-0.34	0
bin	-0.32	0
bin	-0.3	0
bin	-0.28	0
bin	-0.26	0
bin	-0.24	0
bin	-0.22	0
bin	-0.2	0
bin	-0.18	0
bin	-0.16	0
bin	-0.14	0
bin	-0.12	0
bin	-0.1	0
bin	-0.08	0
bin	-0.06	0
bin	-0.04	0
bin	-0.02	0
bin	0	4243
bin	0.02	0
bin	0.04	0
bin	0.06	0
bin	0.08	0
bin	0.1	0
bin	0.12	0
bin	0.14	0
bin	0.16	0
bin	0.18	0
bin	0.2	0
bin	0.22	0
bin	0.24	0
bin	0.26	0
bin	0.28	0
bin	0.3	0
bin	0.32	0
bin	0.34	0
bin	0.36	0
bin	0.38	0
bin	0.4	0
bin	0.42	0
bin	0.44	0
bin	0.46	0
bin	0.48	0
bin	0.5	0
scalar DemoNetworkEth.r1.eth[1].queue.dataQueue outgoingPackets:count 4243
attr recordingmode count
attr source packetPulled
attr title "outgoing packets, count"
attr unit pk
scalar DemoNetworkEth.r1.eth[1].queue.dataQueue outgoingPacketLengths:sum 2773040
attr interpolationmode none
attr recordingmode sum
attr source packetLength(packetPulled)
attr title "outgoing packet lengths, sum"
attr unit b
statistic DemoNetworkEth.r1.eth[1].queue.dataQueue outgoingPacketLengths:histogram
field count 4243
field mean 653.55644591091
field stddev 108.21935530057
field min 624
field max 2088
field sum 2773040
field sqrsum 1862018048
attr interpolationmode none
attr recordingmode histogram
attr source packetLength(packetPulled)
attr title "outgoing packet lengths"
attr unit b
bin	-inf	0
bin	250	0
bin	300	0
bin	350	0
bin	400	0
bin	450	0
bin	500	0
bin	550	0
bin	600	3857
bin	650	72
bin	700	50
bin	750	19
bin	800	23
bin	850	16
bin	900	11
bin	950	138
bin	1000	8
bin	1050	6
bin	1100	8
bin	1150	2
bin	1200	4
bin	1250	2
bin	1300	6
bin	1350	4
bin	1400	1
bin	1450	5
bin	1500	1
bin	1550	2
bin	1600	1
bin	1650	1
bin	1700	0
bin	1750	1
bin	1800	0
bin	1850	1
bin	1900	1
bin	1950	1
bin	2000	0
bin	2050	2
bin	2100	0
bin	2150	0
bin	2200	0
bin	2250	0
bin	2300	0
bin	2350	0
bin	2400	0
bin	2450	0
statistic DemoNetworkEth.r1.eth[1].queue.dataQueue flowQueueingTime:histogram
field count 0
field mean -nan
field stddev nan
field min nan
field max nan
field sum 0
field sqrsum 0
attr interpolationmode none
attr recordingmode histogram
attr source queueingTime(demuxFlow(packetPulled))
attr title "flow queueing times"
attr unit s
bin	-inf	0
bin	0	0
bin	1	0
scalar DemoNetworkEth.r1.eth[1].queue.dataQueue incomingPackets:count 4243
attr recordingmode count
attr source packetPushStarted
attr title "incoming packets, count"
attr unit pk
scalar DemoNetworkEth.r1.eth[1].queue.dataQueue incomingPacketLengths:sum 2773040
attr interpolationmode none
attr recordingmode sum
attr source packetLength(packetPushStarted)
attr title "incoming packet lengths, sum"
attr unit b
statistic DemoNetworkEth.r1.eth[1].queue.dataQueue incomingPacketLengths:histogram
field count 4243
field mean 653.55644591091
field stddev 108.21935530057
field min 624
field max 2088
field sum 2773040
field sqrsum 1862018048
attr interpolationmode none
attr recordingmode histogram
attr source packetLength(packetPushStarted)
attr title "incoming packet lengths"
attr unit b
bin	-inf	0
bin	250	0
bin	300	0
bin	350	0
bin	400	0
bin	450	0
bin	500	0
bin	550	0
bin	600	3857
bin	650	72
bin	700	50
bin	750	19
bin	800	23
bin	850	16
bin	900	11
bin	950	138
bin	1000	8
bin	1050	6
bin	1100	8
bin	1150	2
bin	1200	4
bin	1250	2
bin	1300	6
bin	1350	4
bin	1400	1
bin	1450	5
bin	1500	1
bin	1550	2
bin	1600	1
bin	1650	1
bin	1700	0
bin	1750	1
bin	1800	0
bin	1850	1
bin	1900	1
bin	1950	1
bin	2000	0
bin	2050	2
bin	2100	0
bin	2150	0
bin	2200	0
bin	2250	0
bin	2300	0
bin	2350	0
bin	2400	0
bin	2450	0
scalar DemoNetworkEth.r1.eth[1].queue.dataQueue droppedPacketsQueueOverflow:count 0
attr interpolationmode none
attr recordingmode count
attr source packetDropReasonIsQueueOverflow(packetDropped)
attr title "dropped packets: queue overflow, count"
attr unit pk
scalar DemoNetworkEth.r1.eth[1].queue.dataQueue droppedPacketLengthsQueueOverflow:sum 0
attr interpolationmode none
attr recordingmode sum
attr source packetLength(packetDropReasonIsQueueOverflow(packetDropped))
attr title "dropped packet lengths: queue overflow, sum"
attr unit b
scalar DemoNetworkEth.r1.eth[1].queue.scheduler packets:count 4243
attr recordingmode count
attr source packetPulled
attr title "packets, count"
attr unit pk
scalar DemoNetworkEth.r1.eth[1].queue.scheduler packetLengths:sum 2773040
attr interpolationmode none
attr recordingmode sum
attr source packetLength(packetPulled)
attr title "packet lengths, sum"
attr unit b
statistic DemoNetworkEth.r1.eth[1].queue.scheduler packetLengths:histogram
field count 4243
field mean 653.55644591091
field stddev 108.21935530057
field min 624
field max 2088
field sum 2773040
field sqrsum 1862018048
attr interpolationmode none
attr recordingmode histogram
attr source packetLength(packetPulled)
attr title "packet lengths"
attr unit b
bin	-inf	0
bin	250	0
bin	300	0
bin	350	0
bin	400	0
bin	450	0
bin	500	0
bin	550	0
bin	600	3857
bin	650	72
bin	700	50
bin	750	19
bin	800	23
bin	850	16
bin	900	11
bin	950	138
bin	1000	8
bin	1050	6
bin	1100	8
bin	1150	2
bin	1200	4
bin	1250	2
bin	1300	6
bin	1350	4
bin	1400	1
bin	1450	5
bin	1500	1
bin	1550	2
bin	1600	1
bin	1650	1
bin	1700	0
bin	1750	1
bin	1800	0
bin	1850	1
bin	1900	1
bin	1950	1
bin	2000	0
bin	2050	2
bin	2100	0
bin	2150	0
bin	2200	0
bin	2250	0
bin	2300	0
bin	2350	0
bin	2400	0
bin	2450	0
scalar DemoNetworkEth.r1.eth[1].queue queueLength:last nan
attr autoWarmupFilter false
attr interpolationmode sample-hold
attr recordingmode last
attr source "warmup(atomic(constant0(localSignal(packetPushEnded)) + count(localSignal(packetPushStarted)) - count(localSignal(packetPulled)) - count(localSignal(packetRemoved)) - count(localSignal(packetDropped))))"
attr title "queue length, last"
attr unit pk
scalar DemoNetworkEth.r1.eth[1].queue queueLength:max nan
attr autoWarmupFilter false
attr interpolationmode sample-hold
attr recordingmode max
attr source "warmup(atomic(constant0(localSignal(packetPushEnded)) + count(localSignal(packetPushStarted)) - count(localSignal(packetPulled)) - count(localSignal(packetRemoved)) - count(localSignal(packetDropped))))"
attr title "queue length, max"
attr unit pk
scalar DemoNetworkEth.r1.eth[1].queue queueLength:timeavg -nan
attr autoWarmupFilter false
attr interpolationmode sample-hold
attr recordingmode timeavg
attr source "warmup(atomic(constant0(localSignal(packetPushEnded)) + count(localSignal(packetPushStarted)) - count(localSignal(packetPulled)) - count(localSignal(packetRemoved)) - count(localSignal(packetDropped))))"
attr title "queue length, timeavg"
attr unit pk
scalar DemoNetworkEth.r1.eth[1].queue queueBitLength:last nan
attr autoWarmupFilter false
attr interpolationmode sample-hold
attr recordingmode last
attr source "warmup(atomic(constant0(localSignal(packetPushEnded)) + sum(packetLength(localSignal(packetPushStarted))) - sum(packetLength(localSignal(packetPulled))) - sum(packetLength(localSignal(packetRemoved))) - sum(packetLength(localSignal(packetDropped)))))"
attr title "queue bit length, last"
attr unit b
scalar DemoNetworkEth.r1.eth[1].queue queueBitLength:max nan
attr autoWarmupFilter false
attr interpolationmode sample-hold
attr recordingmode max
attr source "warmup(atomic(constant0(localSignal(packetPushEnded)) + sum(packetLength(localSignal(packetPushStarted))) - sum(packetLength(localSignal(packetPulled))) - sum(packetLength(localSignal(packetRemoved))) - sum(packetLength(localSignal(packetDropped)))))"
attr title "queue bit length, max"
attr unit b
scalar DemoNetworkEth.r1.eth[1].queue queueBitLength:timeavg -nan
attr autoWarmupFilter false
attr interpolationmode sample-hold
attr recordingmode timeavg
attr source "warmup(atomic(constant0(localSignal(packetPushEnded)) + sum(packetLength(localSignal(packetPushStarted))) - sum(packetLength(localSignal(packetPulled))) - sum(packetLength(localSignal(packetRemoved))) - sum(packetLength(localSignal(packetDropped)))))"
attr title "queue bit length, timeavg"
attr unit b
statistic DemoNetworkEth.r1.eth[1].queue queueingTime:histogram
field count 4243
field mean 0
field stddev 0
field min 0
field max 0
field sum 0
field sqrsum 0
attr interpolationmode none
attr recordingmode histogram
attr source queueingTime(localSignal(packetPulled))
attr title "queueing times"
attr unit s
bin	-inf	0
bin	-0.5	0
bin	-0.48	0
bin	-0.46	0
bin	-0.44	0
bin	-0.42	0
bin	-0.4	0
bin	-0.38	0
bin	-0.36	0
bin	-0.34	0
bin	-0.32	0
bin	-0.3	0
bin	-0.28	0
bin	-0.26	0
bin	-0.24	0
bin	-0.22	0
bin	-0.2	0
bin	-0.18	0
bin	-0.16	0
bin	-0.14	0
bin	-0.12	0
bin	-0.1	0
bin	-0.08	0
bin	-0.06	0
bin	-0.04	0
bin	-0.02	0
bin	0	4243
bin	0.02	0
bin	0.04	0
bin	0.06	0
bin	0.08	0
bin	0.1	0
bin	0.12	0
bin	0.14	0
bin	0.16	0
bin	0.18	0
bin	0.2	0
bin	0.22	0
bin	0.24	0
bin	0.26	0
bin	0.28	0
bin	0.3	0
bin	0.32	0
bin	0.34	0
bin	0.36	0
bin	0.38	0
bin	0.4	0
bin	0.42	0
bin	0.44	0
bin	0.46	0
bin	0.48	0
bin	0.5	0
scalar DemoNetworkEth.r1.eth[1].queue outgoingPackets:count 4243
attr recordingmode count
attr source localSignal(packetPulled)
attr title "outgoing packets, count"
attr unit pk
scalar DemoNetworkEth.r1.eth[1].queue outgoingPacketLengths:sum 2773040
attr interpolationmode none
attr recordingmode sum
attr source packetLength(localSignal(packetPulled))
attr title "outgoing packet lengths, sum"
attr unit b
statistic DemoNetworkEth.r1.eth[1].queue outgoingPacketLengths:histogram
field count 4243
field mean 653.55644591091
field stddev 108.21935530057
field min 624
field max 2088
field sum 2773040
field sqrsum 1862018048
attr interpolationmode none
attr recordingmode histogram
attr source packetLength(localSignal(packetPulled))
attr title "outgoing packet lengths"
attr unit b
bin	-inf	0
bin	250	0
bin	300	0
bin	350	0
bin	400	0
bin	450	0
bin	500	0
bin	550	0
bin	600	3857
bin	650	72
bin	700	50
bin	750	19
bin	800	23
bin	850	16
bin	900	11
bin	950	138
bin	1000	8
bin	1050	6
bin	1100	8
bin	1150	2
bin	1200	4
bin	1250	2
bin	1300	6
bin	1350	4
bin	1400	1
bin	1450	5
bin	1500	1
bin	1550	2
bin	1600	1
bin	1650	1
bin	1700	0
bin	1750	1
bin	1800	0
bin	1850	1
bin	1900	1
bin	1950	1
bin	2000	0
bin	2050	2
bin	2100	0
bin	2150	0
bin	2200	0
bin	2250	0
bin	2300	0
bin	2350	0
bin	2400	0
bin	2450	0
statistic DemoNetworkEth.r1.eth[1].queue flowQueueingTime:histogram
field count 0
field mean -nan
field stddev nan
field min nan
field max nan
field sum 0
field sqrsum 0
attr interpolationmode none
attr recordingmode histogram
attr source queueingTime(demuxFlow(localSignal(packetPulled)))
attr title "flow queueing times"
attr unit s
bin	-inf	0
bin	0	0
bin	1	0
scalar DemoNetworkEth.r1.eth[1].queue incomingPackets:count 0
attr recordingmode count
attr source localSignal(packetPushStarted)
attr title "incoming packets, count"
attr unit pk
scalar DemoNetworkEth.r1.eth[1].queue incomingPacketLengths:sum 0
attr interpolationmode none
attr recordingmode sum
attr source packetLength(localSignal(packetPushStarted))
attr title "incoming packet lengths, sum"
attr unit b
statistic DemoNetworkEth.r1.eth[1].queue incomingPacketLengths:histogram
field count 0
field mean -nan
field stddev nan
field min nan
field max nan
field sum 0
field sqrsum 0
attr interpolationmode none
attr recordingmode histogram
attr source packetLength(localSignal(packetPushStarted))
attr title "incoming packet lengths"
attr unit b
bin	-inf	0
bin	0	0
bin	1	0
scalar DemoNetworkEth.r1.eth[1].queue droppedPacketsQueueOverflow:count 0
attr interpolationmode none
attr recordingmode count
attr source packetDropReasonIsQueueOverflow(localSignal(packetDropped))
attr title "dropped packets: queue overflow, count"
attr unit pk
scalar DemoNetworkEth.r1.eth[1].queue droppedPacketLengthsQueueOverflow:sum 0
attr interpolationmode none
attr recordingmode sum
attr source packetLength(packetDropReasonIsQueueOverflow(localSignal(packetDropped)))
attr title "dropped packet lengths: queue overflow, sum"
attr unit b
scalar DemoNetworkEth.r1.eth[1].mac "simulated time" 50000
scalar DemoNetworkEth.r1.eth[1].mac full-duplex 1
scalar DemoNetworkEth.r1.eth[1].mac "frames/sec sent" 0.08486
scalar DemoNetworkEth.r1.eth[1].mac "frames/sec rcvd" 0.0827
scalar DemoNetworkEth.r1.eth[1].mac "bits/sec sent" 55.4608
scalar DemoNetworkEth.r1.eth[1].mac "bits/sec rcvd" 52.01952
scalar DemoNetworkEth.r1.eth[1].mac "rx channel idle (%)" 99.9994268768
scalar DemoNetworkEth.r1.eth[1].mac "rx channel utilization (%)" 0.0005731232
scalar DemoNetworkEth.r1.eth[1].mac rxPausePkUnits:count 0
attr interpolationmode none
attr recordingmode count
attr title "pause units received, count"
scalar DemoNetworkEth.r1.eth[1].mac rxPausePkUnits:sum 0
attr interpolationmode none
attr recordingmode sum
attr title "pause units received, sum"
scalar DemoNetworkEth.r1.eth[1].mac txPausePkUnits:count 0
attr interpolationmode none
attr recordingmode count
attr title "pause units sent, count"
scalar DemoNetworkEth.r1.eth[1].mac txPausePkUnits:sum 0
attr interpolationmode none
attr recordingmode sum
attr title "pause units sent, sum"
scalar DemoNetworkEth.r1.eth[1].mac rxPkOk:count 4135
attr interpolationmode none
attr recordingmode count
attr source rxPkOk
attr title "packets received OK, count"
scalar DemoNetworkEth.r1.eth[1].mac rxPkOk:sum(packetBytes) 325122
attr interpolationmode none
attr recordingmode sum(packetBytes)
attr source rxPkOk
attr title "packets received OK, sum(packetBytes)"
scalar DemoNetworkEth.r1.eth[1].mac txPk:count 4243
attr interpolationmode none
attr recordingmode count
attr source packetSentToLower
attr title "packets transmitted, count"
scalar DemoNetworkEth.r1.eth[1].mac txPk:sum(packetBytes) 346630
attr interpolationmode none
attr recordingmode sum(packetBytes)
attr source packetSentToLower
attr title "packets transmitted, sum(packetBytes)"
scalar DemoNetworkEth.r1.eth[1].mac packetReceivedFromUpper:count 4243
attr interpolationmode none
attr recordingmode count
attr source packetReceivedFromUpper
attr title "packet bytes from higher layer, count"
scalar DemoNetworkEth.r1.eth[1].mac packetReceivedFromUpper:sum(packetBytes) 346630
attr interpolationmode none
attr recordingmode sum(packetBytes)
attr source packetReceivedFromUpper
attr title "packet bytes from higher layer, sum(packetBytes)"
scalar DemoNetworkEth.r1.eth[1].mac passedUpPk:count 4135
attr interpolationmode none
attr recordingmode count
attr source packetSentToUpper
attr title "packets passed to higher layer, count"
scalar DemoNetworkEth.r1.eth[1].mac passedUpPk:sum(packetBytes) 325122
attr interpolationmode none
attr recordingmode sum(packetBytes)
attr source packetSentToUpper
attr title "packets passed to higher layer, sum(packetBytes)"
scalar DemoNetworkEth.r1.eth[1].mac packetDropIncorrectlyReceived:count 0
attr interpolationmode none
attr recordingmode count
attr source packetDropReasonIsIncorrectlyReceived(packetDropped)
attr title "packet drop: incorrectly received, count"
scalar DemoNetworkEth.r1.eth[1].mac packetDropIncorrectlyReceived:sum(packetBytes) 0
attr interpolationmode none
attr recordingmode sum(packetBytes)
attr source packetDropReasonIsIncorrectlyReceived(packetDropped)
attr title "packet drop: incorrectly received, sum(packetBytes)"
scalar DemoNetworkEth.r1.eth[1].mac packetDropInterfaceDown:count 0
attr interpolationmode none
attr recordingmode count
attr source packetDropReasonIsInterfaceDown(packetDropped)
attr title "packet drop: interface down, count"
scalar DemoNetworkEth.r1.eth[1].mac packetDropInterfaceDown:sum(packetBytes) 0
attr interpolationmode none
attr recordingmode sum(packetBytes)
attr source packetDropReasonIsInterfaceDown(packetDropped)
attr title "packet drop: interface down, sum(packetBytes)"
scalar DemoNetworkEth.r1.eth[1].mac packetDropNotAddressedToUs:count 0
attr interpolationmode none
attr recordingmode count
attr source packetDropReasonIsNotAddressedToUs(packetDropped)
attr title "packet drop: not addressed to us, count"
scalar DemoNetworkEth.r1.eth[1].mac packetDropNotAddressedToUs:sum(packetBytes) 0
attr interpolationmode none
attr recordingmode sum(packetBytes)
attr source packetDropReasonIsNotAddressedToUs(packetDropped)
attr title "packet drop: not addressed to us, sum(packetBytes)"
scalar DemoNetworkEth.r1.eth[1] packetDropInterfaceDown:count 0
attr interpolationmode none
attr recordingmode count
attr source packetDropReasonIsInterfaceDown(packetDropped)
attr title "packet drops: interface down, count"
scalar DemoNetworkEth.r1.eth[1] packetDropInterfaceDown:sum(packetBytes) 0
attr interpolationmode none
attr recordingmode sum(packetBytes)
attr source packetDropReasonIsInterfaceDown(packetDropped)
attr title "packet drops: interface down, sum(packetBytes)"
scalar DemoNetworkEth.r1.eth[1] packetDropNoCarrier:count 0
attr interpolationmode none
attr recordingmode count
attr source packetDropReasonIsNoCarrier(packetDropped)
attr title "packet drops: no carrier, count"
scalar DemoNetworkEth.r1.eth[1] packetDropNoCarrier:sum(packetBytes) 0
attr interpolationmode none
attr recordingmode sum(packetBytes)
attr source packetDropReasonIsNoCarrier(packetDropped)
attr title "packet drops: no carrier, sum(packetBytes)"
scalar DemoNetworkEth.r1.eth[2].queue.classifier packets:count 7768
attr recordingmode count
attr source packetPushed
attr title "packets, count"
attr unit pk
scalar DemoNetworkEth.r1.eth[2].queue.classifier packetLengths:sum 4929864
attr interpolationmode none
attr recordingmode sum
attr source packetLength(packetPushed)
attr title "packet lengths, sum"
attr unit b
statistic DemoNetworkEth.r1.eth[2].queue.classifier packetLengths:histogram
field count 7768
field mean 634.63748712667
field stddev 44.705872758104
field min 624
field max 976
field sum 4929864
field sqrsum 3144199744
attr interpolationmode none
attr recordingmode histogram
attr source packetLength(packetPushed)
attr title "packet lengths"
attr unit b
bin	-inf	0
bin	600	0
bin	608	0
bin	616	0
bin	624	3792
bin	632	3693
bin	640	0
bin	648	0
bin	656	95
bin	664	0
bin	672	0
bin	680	0
bin	688	0
bin	696	0
bin	704	0
bin	712	0
bin	720	63
bin	728	0
bin	736	0
bin	744	0
bin	752	0
bin	760	0
bin	768	0
bin	776	0
bin	784	0
bin	792	0
bin	800	0
bin	808	0
bin	816	0
bin	824	0
bin	832	0
bin	840	0
bin	848	0
bin	856	0
bin	864	0
bin	872	0
bin	880	0
bin	888	0
bin	896	0
bin	904	0
bin	912	0
bin	920	0
bin	928	0
bin	936	0
bin	944	0
bin	952	0
bin	960	0
bin	968	0
bin	976	125
bin	984	0
scalar DemoNetworkEth.r1.eth[2].queue.pauseQueue queueLength:last nan
attr autoWarmupFilter false
attr interpolationmode sample-hold
attr recordingmode last
attr source "warmup(atomic(constant0(packetPushEnded) + count(packetPushStarted) - count(packetPulled) - count(packetRemoved) - count(packetDropped)))"
attr title "queue length, last"
attr unit pk
scalar DemoNetworkEth.r1.eth[2].queue.pauseQueue queueLength:max nan
attr autoWarmupFilter false
attr interpolationmode sample-hold
attr recordingmode max
attr source "warmup(atomic(constant0(packetPushEnded) + count(packetPushStarted) - count(packetPulled) - count(packetRemoved) - count(packetDropped)))"
attr title "queue length, max"
attr unit pk
scalar DemoNetworkEth.r1.eth[2].queue.pauseQueue queueLength:timeavg -nan
attr autoWarmupFilter false
attr interpolationmode sample-hold
attr recordingmode timeavg
attr source "warmup(atomic(constant0(packetPushEnded) + count(packetPushStarted) - count(packetPulled) - count(packetRemoved) - count(packetDropped)))"
attr title "queue length, timeavg"
attr unit pk
scalar DemoNetworkEth.r1.eth[2].queue.pauseQueue queueBitLength:last nan
attr autoWarmupFilter false
attr interpolationmode sample-hold
attr recordingmode last
attr source "warmup(atomic(constant0(packetPushEnded) + sum(packetLength(packetPushStarted)) - sum(packetLength(packetPulled)) - sum(packetLength(packetRemoved)) - sum(packetLength(packetDropped))))"
attr title "queue bit length, last"
attr unit b
scalar DemoNetworkEth.r1.eth[2].queue.pauseQueue queueBitLength:max nan
attr autoWarmupFilter false
attr interpolationmode sample-hold
attr recordingmode max
attr source "warmup(atomic(constant0(packetPushEnded) + sum(packetLength(packetPushStarted)) - sum(packetLength(packetPulled)) - sum(packetLength(packetRemoved)) - sum(packetLength(packetDropped))))"
attr title "queue bit length, max"
attr unit b
scalar DemoNetworkEth.r1.eth[2].queue.pauseQueue queueBitLength:timeavg -nan
attr autoWarmupFilter false
attr interpolationmode sample-hold
attr recordingmode timeavg
attr source "warmup(atomic(constant0(packetPushEnded) + sum(packetLength(packetPushStarted)) - sum(packetLength(packetPulled)) - sum(packetLength(packetRemoved)) - sum(packetLength(packetDropped))))"
attr title "queue bit length, timeavg"
attr unit b
statistic DemoNetworkEth.r1.eth[2].queue.pauseQueue queueingTime:histogram
field count 0
field mean -nan
field stddev nan
field min nan
field max nan
field sum 0
field sqrsum 0
attr interpolationmode none
attr recordingmode histogram
attr source queueingTime(packetPulled)
attr title "queueing times"
attr unit s
bin	-inf	0
bin	0	0
bin	1	0
scalar DemoNetworkEth.r1.eth[2].queue.pauseQueue outgoingPackets:count 0
attr recordingmode count
attr source packetPulled
attr title "outgoing packets, count"
attr unit pk
scalar DemoNetworkEth.r1.eth[2].queue.pauseQueue outgoingPacketLengths:sum 0
attr interpolationmode none
attr recordingmode sum
attr source packetLength(packetPulled)
attr title "outgoing packet lengths, sum"
attr unit b
statistic DemoNetworkEth.r1.eth[2].queue.pauseQueue outgoingPacketLengths:histogram
field count 0
field mean -nan
field stddev nan
field min nan
field max nan
field sum 0
field sqrsum 0
attr interpolationmode none
attr recordingmode histogram
attr source packetLength(packetPulled)
attr title "outgoing packet lengths"
attr unit b
bin	-inf	0
bin	0	0
bin	1	0
statistic DemoNetworkEth.r1.eth[2].queue.pauseQueue flowQueueingTime:histogram
field count 0
field mean -nan
field stddev nan
field min nan
field max nan
field sum 0
field sqrsum 0
attr interpolationmode none
attr recordingmode histogram
attr source queueingTime(demuxFlow(packetPulled))
attr title "flow queueing times"
attr unit s
bin	-inf	0
bin	0	0
bin	1	0
scalar DemoNetworkEth.r1.eth[2].queue.pauseQueue incomingPackets:count 0
attr recordingmode count
attr source packetPushStarted
attr title "incoming packets, count"
attr unit pk
scalar DemoNetworkEth.r1.eth[2].queue.pauseQueue incomingPacketLengths:sum 0
attr interpolationmode none
attr recordingmode sum
attr source packetLength(packetPushStarted)
attr title "incoming packet lengths, sum"
attr unit b
statistic DemoNetworkEth.r1.eth[2].queue.pauseQueue incomingPacketLengths:histogram
field count 0
field mean -nan
field stddev nan
field min nan
field max nan
field sum 0
field sqrsum 0
attr interpolationmode none
attr recordingmode histogram
attr source packetLength(packetPushStarted)
attr title "incoming packet lengths"
attr unit b
bin	-inf	0
bin	0	0
bin	1	0
scalar DemoNetworkEth.r1.eth[2].queue.pauseQueue droppedPacketsQueueOverflow:count 0
attr interpolationmode none
attr recordingmode count
attr source packetDropReasonIsQueueOverflow(packetDropped)
attr title "dropped packets: queue overflow, count"
attr unit pk
scalar DemoNetworkEth.r1.eth[2].queue.pauseQueue droppedPacketLengthsQueueOverflow:sum 0
attr interpolationmode none
attr recordingmode sum
attr source packetLength(packetDropReasonIsQueueOverflow(packetDropped))
attr title "dropped packet lengths: queue overflow, sum"
attr unit b
scalar DemoNetworkEth.r1.eth[2].queue.dataQueue queueLength:last 0
attr autoWarmupFilter false
attr interpolationmode sample-hold
attr recordingmode last
attr source "warmup(atomic(constant0(packetPushEnded) + count(packetPushStarted) - count(packetPulled) - count(packetRemoved) - count(packetDropped)))"
attr title "queue length, last"
attr unit pk
scalar DemoNetworkEth.r1.eth[2].queue.dataQueue queueLength:max 1
attr autoWarmupFilter false
attr interpolationmode sample-hold
attr recordingmode max
attr source "warmup(atomic(constant0(packetPushEnded) + count(packetPushStarted) - count(packetPulled) - count(packetRemoved) - count(packetDropped)))"
attr title "queue length, max"
attr unit pk
scalar DemoNetworkEth.r1.eth[2].queue.dataQueue queueLength:timeavg 6.4000311874311e-11
attr autoWarmupFilter false
attr interpolationmode sample-hold
attr recordingmode timeavg
attr source "warmup(atomic(constant0(packetPushEnded) + count(packetPushStarted) - count(packetPulled) - count(packetRemoved) - count(packetDropped)))"
attr title "queue length, timeavg"
attr unit pk
scalar DemoNetworkEth.r1.eth[2].queue.dataQueue queueBitLength:last 0
attr autoWarmupFilter false
attr interpolationmode sample-hold
attr recordingmode last
attr source "warmup(atomic(constant0(packetPushEnded) + sum(packetLength(packetPushStarted)) - sum(packetLength(packetPulled)) - sum(packetLength(packetRemoved)) - sum(packetLength(packetDropped))))"
attr title "queue bit length, last"
attr unit b
scalar DemoNetworkEth.r1.eth[2].queue.dataQueue queueBitLength:max 624
attr autoWarmupFilter false
attr interpolationmode sample-hold
attr recordingmode max
attr source "warmup(atomic(constant0(packetPushEnded) + sum(packetLength(packetPushStarted)) - sum(packetLength(packetPulled)) - sum(packetLength(packetRemoved)) - sum(packetLength(packetDropped))))"
attr title "queue bit length, max"
attr unit b
scalar DemoNetworkEth.r1.eth[2].queue.dataQueue queueBitLength:timeavg 3.993619460957e-08
attr autoWarmupFilter false
attr interpolationmode sample-hold
attr recordingmode timeavg
attr source "warmup(atomic(constant0(packetPushEnded) + sum(packetLength(packetPushStarted)) - sum(packetLength(packetPulled)) - sum(packetLength(packetRemoved)) - sum(packetLength(packetDropped))))"
attr title "queue bit length, timeavg"
attr unit b
statistic DemoNetworkEth.r1.eth[2].queue.dataQueue queueingTime:histogram
field count 7768
field mean 4.1194644696189e-10
field stddev 1.8150202926593e-08
field min 0
field max 8e-07
field sum 3.2e-06
field sqrsum 2.56e-12
attr interpolationmode none
attr recordingmode histogram
attr source queueingTime(packetPulled)
attr title "queueing times"
attr unit s
bin	-inf	0
bin	-0.5	0
bin	-0.48	0
bin	-0.46	0
bin	-0.44	0
bin	-0.42	0
bin	-0.4	0
bin	-0.38	0
bin	-0.36	0
bin	-0.34	0
bin	-0.32	0
bin	-0.3	0
bin	-0.28	0
bin	-0.26	0
bin	-0.24	0
bin	-0.22	0
bin	-0.2	0
bin	-0.18	0
bin	-0.16	0
bin	-0.14	0
bin	-0.12	0
bin	-0.1	0
bin	-0.08	0
bin	-0.06	0
bin	-0.04	0
bin	-0.02	0
bin	0	7768
bin	0.02	0
bin	0.04	0
bin	0.06	0
bin	0.08	0
bin	0.1	0
bin	0.12	0
bin	0.14	0
bin	0.16	0
bin	0.18	0
bin	0.2	0
bin	0.22	0
bin	0.24	0
bin	0.26	0
bin	0.28	0
bin	0.3	0
bin	0.32	0
bin	0.34	0
bin	0.36	0
bin	0.38	0
bin	0.4	0
bin	0.42	0
bin	0.44	0
bin	0.46	0
bin	0.48	0
bin	0.5	0
scalar DemoNetworkEth.r1.eth[2].queue.dataQueue outgoingPackets:count 7768
attr recordingmode count
attr source packetPulled
attr title "outgoing packets, count"
attr unit pk
scalar DemoNetworkEth.r1.eth[2].queue.dataQueue outgoingPacketLengths:sum 4929864
attr interpolationmode none
attr recordingmode sum
attr source packetLength(packetPulled)
attr title "outgoing packet lengths, sum"
attr unit b
statistic DemoNetworkEth.r1.eth[2].queue.dataQueue outgoingPacketLengths:histogram
field count 7768
field mean 634.63748712667
field stddev 44.705872758104
field min 624
field max 976
field sum 4929864
field sqrsum 3144199744
attr interpolationmode none
attr recordingmode histogram
attr source packetLength(packetPulled)
attr title "outgoing packet lengths"
attr unit b
bin	-inf	0
bin	600	0
bin	608	0
bin	616	0
bin	624	3792
bin	632	3693
bin	640	0
bin	648	0
bin	656	95
bin	664	0
bin	672	0
bin	680	0
bin	688	0
bin	696	0
bin	704	0
bin	712	0
bin	720	63
bin	728	0
bin	736	0
bin	744	0
bin	752	0
bin	760	0
bin	768	0
bin	776	0
bin	784	0
bin	792	0
bin	800	0
bin	808	0
bin	816	0
bin	824	0
bin	832	0
bin	840	0
bin	848	0
bin	856	0
bin	864	0
bin	872	0
bin	880	0
bin	888	0
bin	896	0
bin	904	0
bin	912	0
bin	920	0
bin	928	0
bin	936	0
bin	944	0
bin	952	0
bin	960	0
bin	968	0
bin	976	125
bin	984	0
statistic DemoNetworkEth.r1.eth[2].queue.dataQueue flowQueueingTime:histogram
field count 0
field mean -nan
field stddev nan
field min nan
field max nan
field sum 0
field sqrsum 0
attr interpolationmode none
attr recordingmode histogram
attr source queueingTime(demuxFlow(packetPulled))
attr title "flow queueing times"
attr unit s
bin	-inf	0
bin	0	0
bin	1	0
scalar DemoNetworkEth.r1.eth[2].queue.dataQueue incomingPackets:count 7768
attr recordingmode count
attr source packetPushStarted
attr title "incoming packets, count"
attr unit pk
scalar DemoNetworkEth.r1.eth[2].queue.dataQueue incomingPacketLengths:sum 4929864
attr interpolationmode none
attr recordingmode sum
attr source packetLength(packetPushStarted)
attr title "incoming packet lengths, sum"
attr unit b
statistic DemoNetworkEth.r1.eth[2].queue.dataQueue incomingPacketLengths:histogram
field count 7768
field mean 634.63748712667
field stddev 44.705872758104
field min 624
field max 976
field sum 4929864
field sqrsum 3144199744
attr interpolationmode none
attr recordingmode histogram
attr source packetLength(packetPushStarted)
attr title "incoming packet lengths"
attr unit b
bin	-inf	0
bin	600	0
bin	608	0
bin	616	0
bin	624	3792
bin	632	3693
bin	640	0
bin	648	0
bin	656	95
bin	664	0
bin	672	0
bin	680	0
bin	688	0
bin	696	0
bin	704	0
bin	712	0
bin	720	63
bin	728	0
bin	736	0
bin	744	0
bin	752	0
bin	760	0
bin	768	0
bin	776	0
bin	784	0
bin	792	0
bin	800	0
bin	808	0
bin	816	0
bin	824	0
bin	832	0
bin	840	0
bin	848	0
bin	856	0
bin	864	0
bin	872	0
bin	880	0
bin	888	0
bin	896	0
bin	904	0
bin	912	0
bin	920	0
bin	928	0
bin	936	0
bin	944	0
bin	952	0
bin	960	0
bin	968	0
bin	976	125
bin	984	0
scalar DemoNetworkEth.r1.eth[2].queue.dataQueue droppedPacketsQueueOverflow:count 0
attr interpolationmode none
attr recordingmode count
attr source packetDropReasonIsQueueOverflow(packetDropped)
attr title "dropped packets: queue overflow, count"
attr unit pk
scalar DemoNetworkEth.r1.eth[2].queue.dataQueue droppedPacketLengthsQueueOverflow:sum 0
attr interpolationmode none
attr recordingmode sum
attr source packetLength(packetDropReasonIsQueueOverflow(packetDropped))
attr title "dropped packet lengths: queue overflow, sum"
attr unit b
scalar DemoNetworkEth.r1.eth[2].queue.scheduler packets:count 7768
attr recordingmode count
attr source packetPulled
attr title "packets, count"
attr unit pk
scalar DemoNetworkEth.r1.eth[2].queue.scheduler packetLengths:sum 4929864
attr interpolationmode none
attr recordingmode sum
attr source packetLength(packetPulled)
attr title "packet lengths, sum"
attr unit b
statistic DemoNetworkEth.r1.eth[2].queue.scheduler packetLengths:histogram
field count 7768
field mean 634.63748712667
field stddev 44.705872758104
field min 624
field max 976
field sum 4929864
field sqrsum 3144199744
attr interpolationmode none
attr recordingmode histogram
attr source packetLength(packetPulled)
attr title "packet lengths"
attr unit b
bin	-inf	0
bin	600	0
bin	608	0
bin	616	0
bin	624	3792
bin	632	3693
bin	640	0
bin	648	0
bin	656	95
bin	664	0
bin	672	0
bin	680	0
bin	688	0
bin	696	0
bin	704	0
bin	712	0
bin	720	63
bin	728	0
bin	736	0
bin	744	0
bin	752	0
bin	760	0
bin	768	0
bin	776	0
bin	784	0
bin	792	0
bin	800	0
bin	808	0
bin	816	0
bin	824	0
bin	832	0
bin	840	0
bin	848	0
bin	856	0
bin	864	0
bin	872	0
bin	880	0
bin	888	0
bin	896	0
bin	904	0
bin	912	0
bin	920	0
bin	928	0
bin	936	0
bin	944	0
bin	952	0
bin	960	0
bin	968	0
bin	976	125
bin	984	0
scalar DemoNetworkEth.r1.eth[2].queue queueLength:last nan
attr autoWarmupFilter false
attr interpolationmode sample-hold
attr recordingmode last
attr source "warmup(atomic(constant0(localSignal(packetPushEnded)) + count(localSignal(packetPushStarted)) - count(localSignal(packetPulled)) - count(localSignal(packetRemoved)) - count(localSignal(packetDropped))))"
attr title "queue length, last"
attr unit pk
scalar DemoNetworkEth.r1.eth[2].queue queueLength:max nan
attr autoWarmupFilter false
attr interpolationmode sample-hold
attr recordingmode max
attr source "warmup(atomic(constant0(localSignal(packetPushEnded)) + count(localSignal(packetPushStarted)) - count(localSignal(packetPulled)) - count(localSignal(packetRemoved)) - count(localSignal(packetDropped))))"
attr title "queue length, max"
attr unit pk
scalar DemoNetworkEth.r1.eth[2].queue queueLength:timeavg -nan
attr autoWarmupFilter false
attr interpolationmode sample-hold
attr recordingmode timeavg
attr source "warmup(atomic(constant0(localSignal(packetPushEnded)) + count(localSignal(packetPushStarted)) - count(localSignal(packetPulled)) - count(localSignal(packetRemoved)) - count(localSignal(packetDropped))))"
attr title "queue length, timeavg"
attr unit pk
scalar DemoNetworkEth.r1.eth[2].queue queueBitLength:last nan
attr autoWarmupFilter false
attr interpolationmode sample-hold
attr recordingmode last
attr source "warmup(atomic(constant0(localSignal(packetPushEnded)) + sum(packetLength(localSignal(packetPushStarted))) - sum(packetLength(localSignal(packetPulled))) - sum(packetLength(localSignal(packetRemoved))) - sum(packetLength(localSignal(packetDropped)))))"
attr title "queue bit length, last"
attr unit b
scalar DemoNetworkEth.r1.eth[2].queue queueBitLength:max nan
attr autoWarmupFilter false
attr interpolationmode sample-hold
attr recordingmode max
attr source "warmup(atomic(constant0(localSignal(packetPushEnded)) + sum(packetLength(localSignal(packetPushStarted))) - sum(packetLength(localSignal(packetPulled))) - sum(packetLength(localSignal(packetRemoved))) - sum(packetLength(localSignal(packetDropped)))))"
attr title "queue bit length, max"
attr unit b
scalar DemoNetworkEth.r1.eth[2].queue queueBitLength:timeavg -nan
attr autoWarmupFilter false
attr interpolationmode sample-hold
attr recordingmode timeavg
attr source "warmup(atomic(constant0(localSignal(packetPushEnded)) + sum(packetLength(localSignal(packetPushStarted))) - sum(packetLength(localSignal(packetPulled))) - sum(packetLength(localSignal(packetRemoved))) - sum(packetLength(localSignal(packetDropped)))))"
attr title "queue bit length, timeavg"
attr unit b
statistic DemoNetworkEth.r1.eth[2].queue queueingTime:histogram
field count 7768
field mean 0
field stddev 0
field min 0
field max 0
field sum 0
field sqrsum 0
attr interpolationmode none
attr recordingmode histogram
attr source queueingTime(localSignal(packetPulled))
attr title "queueing times"
attr unit s
bin	-inf	0
bin	-0.5	0
bin	-0.48	0
bin	-0.46	0
bin	-0.44	0
bin	-0.42	0
bin	-0.4	0
bin	-0.38	0
bin	-0.36	0
bin	-0.34	0
bin	-0.32	0
bin	-0.3	0
bin	-0.28	0
bin	-0.26	0
bin	-0.24	0
bin	-0.22	0
bin	-0.2	0
bin	-0.18	0
bin	-0.16	0
bin	-0.14	0
bin	-0.12	0
bin	-0.1	0
bin	-0.08	0
bin	-0.06	0
bin	-0.04	0
bin	-0.02	0
bin	0	7768
bin	0.02	0
bin	0.04	0
bin	0.06	0
bin	0.08	0
bin	0.1	0
bin	0.12	0
bin	0.14	0
bin	0.16	0
bin	0.18	0
bin	0.2	0
bin	0.22	0
bin	0.24	0
bin	0.26	0
bin	0.28	0
bin	0.3	0
bin	0.32	0
bin	0.34	0
bin	0.36	0
bin	0.38	0
bin	0.4	0
bin	0.42	0
bin	0.44	0
bin	0.46	0
bin	0.48	0
bin	0.5	0
scalar DemoNetworkEth.r1.eth[2].queue outgoingPackets:count 7768
attr recordingmode count
attr source localSignal(packetPulled)
attr title "outgoing packets, count"
attr unit pk
scalar DemoNetworkEth.r1.eth[2].queue outgoingPacketLengths:sum 4929864
attr interpolationmode none
attr recordingmode sum
attr source packetLength(localSignal(packetPulled))
attr title "outgoing packet lengths, sum"
attr unit b
statistic DemoNetworkEth.r1.eth[2].queue outgoingPacketLengths:histogram
field count 7768
field mean 634.63748712667
field stddev 44.705872758104
field min 624
field max 976
field sum 4929864
field sqrsum 3144199744
attr interpolationmode none
attr recordingmode histogram
attr source packetLength(localSignal(packetPulled))
attr title "outgoing packet lengths"
attr unit b
bin	-inf	0
bin	600	0
bin	608	0
bin	616	0
bin	624	3792
bin	632	3693
bin	640	0
bin	648	0
bin	656	95
bin	664	0
bin	672	0
bin	680	0
bin	688	0
bin	696	0
bin	704	0
bin	712	0
bin	720	63
bin	728	0
bin	736	0
bin	744	0
bin	752	0
bin	760	0
bin	768	0
bin	776	0
bin	784	0
bin	792	0
bin	800	0
bin	808	0
bin	816	0
bin	824	0
bin	832	0
bin	840	0
bin	848	0
bin	856	0
bin	864	0
bin	872	0
bin	880	0
bin	888	0
bin	896	0
bin	904	0
bin	912	0
bin	920	0
bin	928	0
bin	936	0
bin	944	0
bin	952	0
bin	960	0
bin	968	0
bin	976	125
bin	984	0
statistic DemoNetworkEth.r1.eth[2].queue flowQueueingTime:histogram
field count 0
field mean -nan
field stddev nan
field min nan
field max nan
field sum 0
field sqrsum 0
attr interpolationmode none
attr recordingmode histogram
attr source queueingTime(demuxFlow(localSignal(packetPulled)))
attr title "flow queueing times"
attr unit s
bin	-inf	0
bin	0	0
bin	1	0
scalar DemoNetworkEth.r1.eth[2].queue incomingPackets:count 0
attr recordingmode count
attr source localSignal(packetPushStarted)
attr title "incoming packets, count"
attr unit pk
scalar DemoNetworkEth.r1.eth[2].queue incomingPacketLengths:sum 0
attr interpolationmode none
attr recordingmode sum
attr source packetLength(localSignal(packetPushStarted))
attr title "incoming packet lengths, sum"
attr unit b
statistic DemoNetworkEth.r1.eth[2].queue incomingPacketLengths:histogram
field count 0
field mean -nan
field stddev nan
field min nan
field max nan
field sum 0
field sqrsum 0
attr interpolationmode none
attr recordingmode histogram
attr source packetLength(localSignal(packetPushStarted))
attr title "incoming packet lengths"
attr unit b
bin	-inf	0
bin	0	0
bin	1	0
scalar DemoNetworkEth.r1.eth[2].queue droppedPacketsQueueOverflow:count 0
attr interpolationmode none
attr recordingmode count
attr source packetDropReasonIsQueueOverflow(localSignal(packetDropped))
attr title "dropped packets: queue overflow, count"
attr unit pk
scalar DemoNetworkEth.r1.eth[2].queue droppedPacketLengthsQueueOverflow:sum 0
attr interpolationmode none
attr recordingmode sum
attr source packetLength(packetDropReasonIsQueueOverflow(localSignal(packetDropped)))
attr title "dropped packet lengths: queue overflow, sum"
attr unit b
scalar DemoNetworkEth.r1.eth[2].mac "simulated time" 50000
scalar DemoNetworkEth.r1.eth[2].mac full-duplex 1
scalar DemoNetworkEth.r1.eth[2].mac "frames/sec sent" 0.15536
scalar DemoNetworkEth.r1.eth[2].mac "frames/sec rcvd" 0.15468
scalar DemoNetworkEth.r1.eth[2].mac "bits/sec sent" 98.59728
scalar DemoNetworkEth.r1.eth[2].mac "bits/sec rcvd" 100.30176
scalar DemoNetworkEth.r1.eth[2].mac "rx channel idle (%)" 99.9988979872
scalar DemoNetworkEth.r1.eth[2].mac "rx channel utilization (%)" 0.0011020128
scalar DemoNetworkEth.r1.eth[2].mac rxPausePkUnits:count 0
attr interpolationmode none
attr recordingmode count
attr title "pause units received, count"
scalar DemoNetworkEth.r1.eth[2].mac rxPausePkUnits:sum 0
attr interpolationmode none
[...]
bin	750	43
bin	800	38
bin	850	24
bin	900	21
bin	950	16
bin	1000	14
bin	1050	9
bin	1100	11
bin	1150	6
bin	1200	9
bin	1250	6
bin	1300	8
bin	1350	7
bin	1400	2
bin	1450	8
bin	1500	3
bin	1550	2
bin	1600	2
bin	1650	2
bin	1700	3
bin	1750	2
bin	1800	2
bin	1850	1
bin	1900	1
bin	1950	1
bin	2000	0
bin	2050	2
bin	2100	0
bin	2150	1
bin	2200	0
bin	2250	0
bin	2300	0
bin	2350	0
bin	2400	0
bin	2450	0
statistic DemoNetworkEth.srv[1].eth[0].queue.dataQueue flowQueueingTime:histogram
field count 0
field mean -nan
field stddev nan
field min nan
field max nan
field sum 0
field sqrsum 0
attr interpolationmode none
attr recordingmode histogram
attr source queueingTime(demuxFlow(packetPulled))
attr title "flow queueing times"
attr unit s
bin	-inf	0
bin	0	0
bin	1	0
scalar DemoNetworkEth.srv[1].eth[0].queue.dataQueue incomingPackets:count 7610
attr recordingmode count
attr source packetPushStarted
attr title "incoming packets, count"
attr unit pk
scalar DemoNetworkEth.srv[1].eth[0].queue.dataQueue incomingPacketLengths:sum 4893936
attr interpolationmode none
attr recordingmode sum
attr source packetLength(packetPushStarted)
attr title "incoming packet lengths, sum"
attr unit b
statistic DemoNetworkEth.srv[1].eth[0].queue.dataQueue incomingPacketLengths:histogram
field count 7610
field mean 643.09277266754
field stddev 92.416429769417
field min 592
field max 2184
field sum 4893936
field sqrsum 3212241792
attr interpolationmode none
attr recordingmode histogram
attr source packetLength(packetPushStarted)
attr title "incoming packet lengths"
attr unit b
bin	-inf	0
bin	200	0
bin	250	0
bin	300	0
bin	350	0
bin	400	0
bin	450	0
bin	500	0
bin	550	1
bin	600	7135
bin	650	138
bin	700	92
bin	750	43
bin	800	38
bin	850	24
bin	900	21
bin	950	16
bin	1000	14
bin	1050	9
bin	1100	11
bin	1150	6
bin	1200	9
bin	1250	6
bin	1300	8
bin	1350	7
bin	1400	2
bin	1450	8
bin	1500	3
bin	1550	2
bin	1600	2
bin	1650	2
bin	1700	3
bin	1750	2
bin	1800	2
bin	1850	1
bin	1900	1
bin	1950	1
bin	2000	0
bin	2050	2
bin	2100	0
bin	2150	1
bin	2200	0
bin	2250	0
bin	2300	0
bin	2350	0
bin	2400	0
bin	2450	0
scalar DemoNetworkEth.srv[1].eth[0].queue.dataQueue droppedPacketsQueueOverflow:count 0
attr interpolationmode none
attr recordingmode count
attr source packetDropReasonIsQueueOverflow(packetDropped)
attr title "dropped packets: queue overflow, count"
attr unit pk
scalar DemoNetworkEth.srv[1].eth[0].queue.dataQueue droppedPacketLengthsQueueOverflow:sum 0
attr interpolationmode none
attr recordingmode sum
attr source packetLength(packetDropReasonIsQueueOverflow(packetDropped))
attr title "dropped packet lengths: queue overflow, sum"
attr unit b
scalar DemoNetworkEth.srv[1].eth[0].queue.scheduler packets:count 7610
attr recordingmode count
attr source packetPulled
attr title "packets, count"
attr unit pk
scalar DemoNetworkEth.srv[1].eth[0].queue.scheduler packetLengths:sum 4893936
attr interpolationmode none
attr recordingmode sum
attr source packetLength(packetPulled)
attr title "packet lengths, sum"
attr unit b
statistic DemoNetworkEth.srv[1].eth[0].queue.scheduler packetLengths:histogram
field count 7610
field mean 643.09277266754
field stddev 92.416429769417
field min 592
field max 2184
field sum 4893936
field sqrsum 3212241792
attr interpolationmode none
attr recordingmode histogram
attr source packetLength(packetPulled)
attr title "packet lengths"
attr unit b
bin	-inf	0
bin	200	0
bin	250	0
bin	300	0
bin	350	0
bin	400	0
bin	450	0
bin	500	0
bin	550	1
bin	600	7135
bin	650	138
bin	700	92
bin	750	43
bin	800	38
bin	850	24
bin	900	21
bin	950	16
bin	1000	14
bin	1050	9
bin	1100	11
bin	1150	6
bin	1200	9
bin	1250	6
bin	1300	8
bin	1350	7
bin	1400	2
bin	1450	8
bin	1500	3
bin	1550	2
bin	1600	2
bin	1650	2
bin	1700	3
bin	1750	2
bin	1800	2
bin	1850	1
bin	1900	1
bin	1950	1
bin	2000	0
bin	2050	2
bin	2100	0
bin	2150	1
bin	2200	0
bin	2250	0
bin	2300	0
bin	2350	0
bin	2400	0
bin	2450	0
scalar DemoNetworkEth.srv[1].eth[0].queue queueLength:last nan
attr autoWarmupFilter false
attr interpolationmode sample-hold
attr recordingmode last
attr source "warmup(atomic(constant0(localSignal(packetPushEnded)) + count(localSignal(packetPushStarted)) - count(localSignal(packetPulled)) - count(localSignal(packetRemoved)) - count(localSignal(packetDropped))))"
attr title "queue length, last"
attr unit pk
scalar DemoNetworkEth.srv[1].eth[0].queue queueLength:max nan
attr autoWarmupFilter false
attr interpolationmode sample-hold
attr recordingmode max
attr source "warmup(atomic(constant0(localSignal(packetPushEnded)) + count(localSignal(packetPushStarted)) - count(localSignal(packetPulled)) - count(localSignal(packetRemoved)) - count(localSignal(packetDropped))))"
attr title "queue length, max"
attr unit pk
scalar DemoNetworkEth.srv[1].eth[0].queue queueLength:timeavg -nan
attr autoWarmupFilter false
attr interpolationmode sample-hold
attr recordingmode timeavg
attr source "warmup(atomic(constant0(localSignal(packetPushEnded)) + count(localSignal(packetPushStarted)) - count(localSignal(packetPulled)) - count(localSignal(packetRemoved)) - count(localSignal(packetDropped))))"
attr title "queue length, timeavg"
attr unit pk
scalar DemoNetworkEth.srv[1].eth[0].queue queueBitLength:last nan
attr autoWarmupFilter false
attr interpolationmode sample-hold
attr recordingmode last
attr source "warmup(atomic(constant0(localSignal(packetPushEnded)) + sum(packetLength(localSignal(packetPushStarted))) - sum(packetLength(localSignal(packetPulled))) - sum(packetLength(localSignal(packetRemoved))) - sum(packetLength(localSignal(packetDropped)))))"
attr title "queue bit length, last"
attr unit b
scalar DemoNetworkEth.srv[1].eth[0].queue queueBitLength:max nan
attr autoWarmupFilter false
attr interpolationmode sample-hold
attr recordingmode max
attr source "warmup(atomic(constant0(localSignal(packetPushEnded)) + sum(packetLength(localSignal(packetPushStarted))) - sum(packetLength(localSignal(packetPulled))) - sum(packetLength(localSignal(packetRemoved))) - sum(packetLength(localSignal(packetDropped)))))"
attr title "queue bit length, max"
attr unit b
scalar DemoNetworkEth.srv[1].eth[0].queue queueBitLength:timeavg -nan
attr autoWarmupFilter false
attr interpolationmode sample-hold
attr recordingmode timeavg
attr source "warmup(atomic(constant0(localSignal(packetPushEnded)) + sum(packetLength(localSignal(packetPushStarted))) - sum(packetLength(localSignal(packetPulled))) - sum(packetLength(localSignal(packetRemoved))) - sum(packetLength(localSignal(packetDropped)))))"
attr title "queue bit length, timeavg"
attr unit b
statistic DemoNetworkEth.srv[1].eth[0].queue queueingTime:histogram
field count 7610
field mean 0
field stddev 0
field min 0
field max 0
field sum 0
field sqrsum 0
attr interpolationmode none
attr recordingmode histogram
attr source queueingTime(localSignal(packetPulled))
attr title "queueing times"
attr unit s
bin	-inf	0
bin	-0.5	0
bin	-0.48	0
bin	-0.46	0
bin	-0.44	0
bin	-0.42	0
bin	-0.4	0
bin	-0.38	0
bin	-0.36	0
bin	-0.34	0
bin	-0.32	0
bin	-0.3	0
bin	-0.28	0
bin	-0.26	0
bin	-0.24	0
bin	-0.22	0
bin	-0.2	0
bin	-0.18	0
bin	-0.16	0
bin	-0.14	0
bin	-0.12	0
bin	-0.1	0
bin	-0.08	0
bin	-0.06	0
bin	-0.04	0
bin	-0.02	0
bin	0	7610
bin	0.02	0
bin	0.04	0
bin	0.06	0
bin	0.08	0
bin	0.1	0
bin	0.12	0
bin	0.14	0
bin	0.16	0
bin	0.18	0
bin	0.2	0
bin	0.22	0
bin	0.24	0
bin	0.26	0
bin	0.28	0
bin	0.3	0
bin	0.32	0
bin	0.34	0
bin	0.36	0
bin	0.38	0
bin	0.4	0
bin	0.42	0
bin	0.44	0
bin	0.46	0
bin	0.48	0
bin	0.5	0
scalar DemoNetworkEth.srv[1].eth[0].queue outgoingPackets:count 7610
attr recordingmode count
attr source localSignal(packetPulled)
attr title "outgoing packets, count"
attr unit pk
scalar DemoNetworkEth.srv[1].eth[0].queue outgoingPacketLengths:sum 4893936
attr interpolationmode none
attr recordingmode sum
attr source packetLength(localSignal(packetPulled))
attr title "outgoing packet lengths, sum"
attr unit b
statistic DemoNetworkEth.srv[1].eth[0].queue outgoingPacketLengths:histogram
field count 7610
field mean 643.09277266754
field stddev 92.416429769417
field min 592
field max 2184
field sum 4893936
field sqrsum 3212241792
attr interpolationmode none
attr recordingmode histogram
attr source packetLength(localSignal(packetPulled))
attr title "outgoing packet lengths"
attr unit b
bin	-inf	0
bin	200	0
bin	250	0
bin	300	0
bin	350	0
bin	400	0
bin	450	0
bin	500	0
bin	550	1
bin	600	7135
bin	650	138
bin	700	92
bin	750	43
bin	800	38
bin	850	24
bin	900	21
bin	950	16
bin	1000	14
bin	1050	9
bin	1100	11
bin	1150	6
bin	1200	9
bin	1250	6
bin	1300	8
bin	1350	7
bin	1400	2
bin	1450	8
bin	1500	3
bin	1550	2
bin	1600	2
bin	1650	2
bin	1700	3
bin	1750	2
bin	1800	2
bin	1850	1
bin	1900	1
bin	1950	1
bin	2000	0
bin	2050	2
bin	2100	0
bin	2150	1
bin	2200	0
bin	2250	0
bin	2300	0
bin	2350	0
bin	2400	0
bin	2450	0
statistic DemoNetworkEth.srv[1].eth[0].queue flowQueueingTime:histogram
field count 0
field mean -nan
field stddev nan
field min nan
field max nan
field sum 0
field sqrsum 0
attr interpolationmode none
attr recordingmode histogram
attr source queueingTime(demuxFlow(localSignal(packetPulled)))
attr title "flow queueing times"
attr unit s
bin	-inf	0
bin	0	0
bin	1	0
scalar DemoNetworkEth.srv[1].eth[0].queue incomingPackets:count 0
attr recordingmode count
attr source localSignal(packetPushStarted)
attr title "incoming packets, count"
attr unit pk
scalar DemoNetworkEth.srv[1].eth[0].queue incomingPacketLengths:sum 0
attr interpolationmode none
attr recordingmode sum
attr source packetLength(localSignal(packetPushStarted))
attr title "incoming packet lengths, sum"
attr unit b
statistic DemoNetworkEth.srv[1].eth[0].queue incomingPacketLengths:histogram
field count 0
field mean -nan
field stddev nan
field min nan
field max nan
field sum 0
field sqrsum 0
attr interpolationmode none
attr recordingmode histogram
attr source packetLength(localSignal(packetPushStarted))
attr title "incoming packet lengths"
attr unit b
bin	-inf	0
bin	0	0
bin	1	0
scalar DemoNetworkEth.srv[1].eth[0].queue droppedPacketsQueueOverflow:count 0
attr interpolationmode none
attr recordingmode count
attr source packetDropReasonIsQueueOverflow(localSignal(packetDropped))
attr title "dropped packets: queue overflow, count"
attr unit pk
scalar DemoNetworkEth.srv[1].eth[0].queue droppedPacketLengthsQueueOverflow:sum 0
attr interpolationmode none
attr recordingmode sum
attr source packetLength(packetDropReasonIsQueueOverflow(localSignal(packetDropped)))
attr title "dropped packet lengths: queue overflow, sum"
attr unit b
scalar DemoNetworkEth.srv[1].eth[0].mac "simulated time" 50000
scalar DemoNetworkEth.srv[1].eth[0].mac full-duplex 1
scalar DemoNetworkEth.srv[1].eth[0].mac "frames/sec sent" 0.1522
scalar DemoNetworkEth.srv[1].eth[0].mac "frames/sec rcvd" 0.15542
scalar DemoNetworkEth.srv[1].eth[0].mac "bits/sec sent" 97.87872
scalar DemoNetworkEth.srv[1].eth[0].mac "bits/sec rcvd" 98.66096
scalar DemoNetworkEth.srv[1].eth[0].mac "rx channel idle (%)" 99.9989139216
scalar DemoNetworkEth.srv[1].eth[0].mac "rx channel utilization (%)" 0.0010860784
scalar DemoNetworkEth.srv[1].eth[0].mac rxPausePkUnits:count 0
attr interpolationmode none
attr recordingmode count
attr title "pause units received, count"
scalar DemoNetworkEth.srv[1].eth[0].mac rxPausePkUnits:sum 0
attr interpolationmode none
attr recordingmode sum
attr title "pause units received, sum"
scalar DemoNetworkEth.srv[1].eth[0].mac txPausePkUnits:count 0
attr interpolationmode none
attr recordingmode count
attr title "pause units sent, count"
scalar DemoNetworkEth.srv[1].eth[0].mac txPausePkUnits:sum 0
attr interpolationmode none
attr recordingmode sum
attr title "pause units sent, sum"
scalar DemoNetworkEth.srv[1].eth[0].mac rxPkOk:count 7771
attr interpolationmode none
attr recordingmode count
attr source rxPkOk
attr title "packets received OK, count"
scalar DemoNetworkEth.srv[1].eth[0].mac rxPkOk:sum(packetBytes) 616631
attr interpolationmode none
attr recordingmode sum(packetBytes)
attr source rxPkOk
attr title "packets received OK, sum(packetBytes)"
scalar DemoNetworkEth.srv[1].eth[0].mac txPk:count 7610
attr interpolationmode none
attr recordingmode count
attr source packetSentToLower
attr title "packets transmitted, count"
scalar DemoNetworkEth.srv[1].eth[0].mac txPk:sum(packetBytes) 611742
attr interpolationmode none
attr recordingmode sum(packetBytes)
attr source packetSentToLower
attr title "packets transmitted, sum(packetBytes)"
scalar DemoNetworkEth.srv[1].eth[0].mac packetReceivedFromUpper:count 7610
attr interpolationmode none
attr recordingmode count
attr source packetReceivedFromUpper
attr title "packet bytes from higher layer, count"
scalar DemoNetworkEth.srv[1].eth[0].mac packetReceivedFromUpper:sum(packetBytes) 611742
attr interpolationmode none
attr recordingmode sum(packetBytes)
attr source packetReceivedFromUpper
attr title "packet bytes from higher layer, sum(packetBytes)"
scalar DemoNetworkEth.srv[1].eth[0].mac passedUpPk:count 7771
attr interpolationmode none
attr recordingmode count
attr source packetSentToUpper
attr title "packets passed to higher layer, count"
scalar DemoNetworkEth.srv[1].eth[0].mac passedUpPk:sum(packetBytes) 616631
attr interpolationmode none
attr recordingmode sum(packetBytes)
attr source packetSentToUpper
attr title "packets passed to higher layer, sum(packetBytes)"
scalar DemoNetworkEth.srv[1].eth[0].mac packetDropIncorrectlyReceived:count 0
attr interpolationmode none
attr recordingmode count
attr source packetDropReasonIsIncorrectlyReceived(packetDropped)
attr title "packet drop: incorrectly received, count"
scalar DemoNetworkEth.srv[1].eth[0].mac packetDropIncorrectlyReceived:sum(packetBytes) 0
attr interpolationmode none
attr recordingmode sum(packetBytes)
attr source packetDropReasonIsIncorrectlyReceived(packetDropped)
attr title "packet drop: incorrectly received, sum(packetBytes)"
scalar DemoNetworkEth.srv[1].eth[0].mac packetDropInterfaceDown:count 0
attr interpolationmode none
attr recordingmode count
attr source packetDropReasonIsInterfaceDown(packetDropped)
attr title "packet drop: interface down, count"
scalar DemoNetworkEth.srv[1].eth[0].mac packetDropInterfaceDown:sum(packetBytes) 0
attr interpolationmode none
attr recordingmode sum(packetBytes)
attr source packetDropReasonIsInterfaceDown(packetDropped)
attr title "packet drop: interface down, sum(packetBytes)"
scalar DemoNetworkEth.srv[1].eth[0].mac packetDropNotAddressedToUs:count 0
attr interpolationmode none
attr recordingmode count
attr source packetDropReasonIsNotAddressedToUs(packetDropped)
attr title "packet drop: not addressed to us, count"
scalar DemoNetworkEth.srv[1].eth[0].mac packetDropNotAddressedToUs:sum(packetBytes) 0
attr interpolationmode none
attr recordingmode sum(packetBytes)
attr source packetDropReasonIsNotAddressedToUs(packetDropped)
attr title "packet drop: not addressed to us, sum(packetBytes)"
scalar DemoNetworkEth.srv[1].eth[0] packetDropInterfaceDown:count 0
attr interpolationmode none
attr recordingmode count
attr source packetDropReasonIsInterfaceDown(packetDropped)
attr title "packet drops: interface down, count"
scalar DemoNetworkEth.srv[1].eth[0] packetDropInterfaceDown:sum(packetBytes) 0
attr interpolationmode none
attr recordingmode sum(packetBytes)
attr source packetDropReasonIsInterfaceDown(packetDropped)
attr title "packet drops: interface down, sum(packetBytes)"
scalar DemoNetworkEth.srv[1].eth[0] packetDropNoCarrier:count 0
attr interpolationmode none
attr recordingmode count
attr source packetDropReasonIsNoCarrier(packetDropped)
attr title "packet drops: no carrier, count"
scalar DemoNetworkEth.srv[1].eth[0] packetDropNoCarrier:sum(packetBytes) 0
attr interpolationmode none
attr recordingmode sum(packetBytes)
attr source packetDropReasonIsNoCarrier(packetDropped)
attr title "packet drops: no carrier, sum(packetBytes)"
scalar DemoNetworkEth.srv[1].ipv6.neighbourDiscovery startDad:count 1
attr recordingmode count
attr title "DAD started, count"
scalar DemoNetworkEth.srv[1].udp packetReceived:count 0
attr interpolationmode none
attr recordingmode count
attr source packetReceived
attr title "packets received, count"
scalar DemoNetworkEth.srv[1].udp packetReceived:sum(packetBytes) 0
attr interpolationmode none
attr recordingmode sum(packetBytes)
attr source packetReceived
attr title "packets received, sum(packetBytes)"
scalar DemoNetworkEth.srv[1].udp packetSent:count 0
attr interpolationmode none
attr recordingmode count
attr source packetSent
attr title "packets sent, count"
scalar DemoNetworkEth.srv[1].udp packetSent:sum(packetBytes) 0
attr interpolationmode none
attr recordingmode sum(packetBytes)
attr source packetSent
attr title "packets sent, sum(packetBytes)"
scalar DemoNetworkEth.srv[1].udp passedUpPk:count 0
attr interpolationmode none
attr recordingmode count
attr source packetSentToUpper
attr title "packets passed up, count"
scalar DemoNetworkEth.srv[1].udp droppedPkWrongPort:count 0
attr interpolationmode none
attr recordingmode count
attr source packetDropReasonIsNoPortFound(packetDropped)
attr title "packets dropped (wrong port), count"
scalar DemoNetworkEth.srv[1].udp droppedPkBadChecksum:count 0
attr interpolationmode none
attr recordingmode count
attr source packetDropReasonIsIncorrectlyReceived(packetDropped)
attr title "packets dropped (checksum error), count"
scalar DemoNetworkEth.srv[1].app[0] packetReceived:count 3693
attr interpolationmode none
attr recordingmode count
attr source packetReceived
attr title "packets received, count"
scalar DemoNetworkEth.srv[1].app[0] packetReceived:sum(packetBytes) 3693
attr interpolationmode none
attr recordingmode sum(packetBytes)
attr source packetReceived
attr title "packets received, sum(packetBytes)"
statistic DemoNetworkEth.srv[1].app[0] endToEndDelay:histogram
field count 3693
field mean 0.000209955786378
field stddev 1.6912175606126e-05
field min 0.0002091
field max 0.00061936481
field sum 0.77536671909397
field sqrsum 0.00016384872129505
attr interpolationmode none
attr recordingmode histogram
attr source dataAge(packetReceived)
attr title "end-to-end delay"
attr unit s
bin	-inf	0
bin	0	3693
bin	0.01	0
bin	0.02	0
bin	0.03	0
bin	0.04	0
bin	0.05	0
bin	0.06	0
bin	0.07	0
bin	0.08	0
bin	0.09	0
bin	0.1	0
bin	0.11	0
bin	0.12	0
bin	0.13	0
bin	0.14	0
bin	0.15	0
bin	0.16	0
bin	0.17	0
bin	0.18	0
bin	0.19	0
bin	0.2	0
bin	0.21	0
bin	0.22	0
bin	0.23	0
bin	0.24	0
bin	0.25	0
bin	0.26	0
bin	0.27	0
bin	0.28	0
bin	0.29	0
bin	0.3	0
bin	0.31	0
bin	0.32	0
bin	0.33	0
bin	0.34	0
bin	0.35	0
bin	0.36	0
bin	0.37	0
bin	0.38	0
bin	0.39	0
bin	0.4	0
bin	0.41	0
bin	0.42	0
bin	0.43	0
bin	0.44	0
bin	0.45	0
bin	0.46	0
bin	0.47	0
bin	0.48	0
bin	0.49	0
bin	0.5	0
bin	0.51	0
statistic DemoNetworkEth.srv[1].app[0] endToEndDelay:weightedHistogram
field count 3693
field mean 0.000209955786378
field stddev 1.6912175606126e-05
field min 0.0002091
field max 0.00061936481
field weights 29544
field weightedSum 6.2029337527517
field sqrSumWeights 236352
field weightedSqrSum 0.0013107897703604
attr interpolationmode none
attr recordingmode weightedHistogram
attr source dataAge(packetReceived)
attr title "end-to-end delay, weightedHistogram"
attr unit s
bin	-inf	0
bin	0	29544
bin	0.01	0
bin	0.02	0
bin	0.03	0
bin	0.04	0
bin	0.05	0
bin	0.06	0
bin	0.07	0
bin	0.08	0
bin	0.09	0
bin	0.1	0
bin	0.11	0
bin	0.12	0
bin	0.13	0
bin	0.14	0
bin	0.15	0
bin	0.16	0
bin	0.17	0
bin	0.18	0
bin	0.19	0
bin	0.2	0
bin	0.21	0
bin	0.22	0
bin	0.23	0
bin	0.24	0
bin	0.25	0
bin	0.26	0
bin	0.27	0
bin	0.28	0
bin	0.29	0
bin	0.3	0
bin	0.31	0
bin	0.32	0
bin	0.33	0
bin	0.34	0
bin	0.35	0
bin	0.36	0
bin	0.37	0
bin	0.38	0
bin	0.39	0
bin	0.4	0
bin	0.41	0
bin	0.42	0
bin	0.43	0
bin	0.44	0
bin	0.45	0
bin	0.46	0
bin	0.47	0
bin	0.48	0
bin	0.49	0
bin	0.5	0
bin	0.51	0
scalar DemoNetworkEth.srv[1].app[0] packetSent:count 3693
attr interpolationmode none
attr recordingmode count
attr source packetSent
attr title "packets sent, count"
scalar DemoNetworkEth.srv[1].app[0] packetSent:sum(packetBytes) 17042
attr interpolationmode none
attr recordingmode sum(packetBytes)
attr source packetSent
attr title "packets sent, sum(packetBytes)"

