version 3
run Step4A-0-20260206-22:03:26-3566610
attr configname Step4A
attr datetime 20260206-22:03:26
attr datetimef 20260206-220326
attr experiment Step4A
attr inifile omnetpp.ini
attr iterationvars ""
attr iterationvarsd ""
attr iterationvarsf ""
attr measurement ""
attr network RipNetworkA
attr processid 3566610
attr repetition 0
attr replication #0
attr resultdir results
attr runnumber 0
attr seedset 0
config **.param-recording false
config image-path /home/attila/projects/inet/images
config output-scalar-file results/omnetpp.ini-Step4A-#0.sca
config output-scalar-precision 17
config output-vector-file results/omnetpp.ini-Step4A-#0.vec
config output-vector-precision 17
config record-eventlog false
config sim-time-limit 1000s
config description "RIP timers: Link comes back online before the timeout timer expires"
config extends Step2
config sim-time-limit 1000s
config *.router*.rip.ripConfig "xml(\"<config>                                   <interface hosts='router*' mode='SplitHorizon' />                                </config>\")"
config *.host0.numApps 0
config *.scenarioManager.script "xmldoc(\"scenario5.xml\")"
config description "Pinging after RIP convergence"
config network RipNetworkA
config sim-time-limit 100s
config *.configurator.config "xml(\"<config>                                 <interface hosts='**' address='10.x.x.x' netmask='255.x.x.x'/>                                 <autoroute sourceHosts='host*'/>                              </config>\")"
config *.configurator.addStaticRoutes true
config *.router*.hasRip true
config *.router*.rip.startupTime uniform(0s,1s)
config *.router*.rip.ripConfig "xml(\"<config>                                   <interface hosts='router*' mode='NoSplitHorizon' />                                </config>\")"
config *.router*.rip.triggeredUpdate false
config *.host0.numApps 1
config *.host0.app[0].typename PingApp
config *.host0.app[0].destAddr "\"host6\""
config *.host0.app[0].startTime 50s
config *.*.ipv4.arp.typename GlobalArp
config *.visualizer.interfaceTableVisualizer[0].displayInterfaceTables true
config *.visualizer.typename IntegratedMultiCanvasVisualizer
config *.visualizer.numRoutingTableVisualizers 2
config *.visualizer.routingTableVisualizer[*].displayRoutingTables true
config *.visualizer.routingTableVisualizer[*].nodeFilter "\"router* or host0 or host6\""
config *.visualizer.routingTableVisualizer[*].labelFormat "\"%d/%m (%e) -> %g (%n)\""
config *.visualizer.routingTableVisualizer[0].destinationFilter "\"host0\""
config *.visualizer.routingTableVisualizer[0].lineColor "\"red\""
config *.visualizer.routingTableVisualizer[1].destinationFilter "\"host6\""
config *.visualizer.routingTableVisualizer[1].lineColor "\"blue\""
config *.visualizer.interfaceTableVisualizer[0].nodeFilter "\"not switch*\""

scalar RipNetworkA.host0.ethernet pauseSent:count 0
scalar RipNetworkA.host0.ethernet pauseSent:sum 0
scalar RipNetworkA.host0.ethernet decapPk:count 34
scalar RipNetworkA.host0.ethernet decapPk:sum(packetBytes) 4348
scalar RipNetworkA.host0.ethernet encapPk:count 0
scalar RipNetworkA.host0.ethernet encapPk:sum(packetBytes) 0
scalar RipNetworkA.host0.lo[0].lo rcvdPkFromHl:count 0
scalar RipNetworkA.host0.lo[0].lo rcvdPkFromHl:sum(packetBytes) 0
scalar RipNetworkA.host0.lo[0].lo passedUpPk:count 0
scalar RipNetworkA.host0.lo[0].lo passedUpPk:sum(packetBytes) 0
scalar RipNetworkA.host0.lo[0] packetDropInterfaceDown:count 0
scalar RipNetworkA.host0.lo[0] packetDropInterfaceDown:sum(packetBytes) 0
scalar RipNetworkA.host0.lo[0] packetDropNoCarrier:count 0
scalar RipNetworkA.host0.lo[0] packetDropNoCarrier:sum(packetBytes) 0
scalar RipNetworkA.host0.eth[0].queue queueLength:last 0
scalar RipNetworkA.host0.eth[0].queue queueLength:max 0
scalar RipNetworkA.host0.eth[0].queue queueLength:timeavg 0
scalar RipNetworkA.host0.eth[0].queue queueBitLength:last 0
scalar RipNetworkA.host0.eth[0].queue queueBitLength:max 0
scalar RipNetworkA.host0.eth[0].queue queueBitLength:timeavg 0
scalar RipNetworkA.host0.eth[0].queue outgoingPackets:count 0
scalar RipNetworkA.host0.eth[0].queue outgoingPacketLengths:sum 0
scalar RipNetworkA.host0.eth[0].queue incomingPackets:count 0
scalar RipNetworkA.host0.eth[0].queue incomingPacketLengths:sum 0
scalar RipNetworkA.host0.eth[0].queue droppedPacketsQueueOverflow:count 0
scalar RipNetworkA.host0.eth[0].queue droppedPacketLengthsQueueOverflow:sum 0
scalar RipNetworkA.host0.eth[0].mac "simulated time" 1000
scalar RipNetworkA.host0.eth[0].mac full-duplex 1
scalar RipNetworkA.host0.eth[0].mac "frames/sec sent" 0
scalar RipNetworkA.host0.eth[0].mac "frames/sec rcvd" 0.034000000000000002
scalar RipNetworkA.host0.eth[0].mac "bits/sec sent" 0
scalar RipNetworkA.host0.eth[0].mac "bits/sec rcvd" 39.68
scalar RipNetworkA.host0.eth[0].mac "rx channel idle (%)" 99.999958144000004
scalar RipNetworkA.host0.eth[0].mac "rx channel utilization (%)" 4.1856e-05
scalar RipNetworkA.host0.eth[0].mac rxPausePkUnits:count 0
scalar RipNetworkA.host0.eth[0].mac rxPausePkUnits:sum 0
scalar RipNetworkA.host0.eth[0].mac txPausePkUnits:count 0
scalar RipNetworkA.host0.eth[0].mac txPausePkUnits:sum 0
scalar RipNetworkA.host0.eth[0].mac rxPkOk:count 34
scalar RipNetworkA.host0.eth[0].mac rxPkOk:sum(packetBytes) 4960
scalar RipNetworkA.host0.eth[0].mac txPk:count 0
scalar RipNetworkA.host0.eth[0].mac txPk:sum(packetBytes) 0
scalar RipNetworkA.host0.eth[0].mac packetReceivedFromUpper:count 0
scalar RipNetworkA.host0.eth[0].mac packetReceivedFromUpper:sum(packetBytes) 0
scalar RipNetworkA.host0.eth[0].mac passedUpPk:count 34
scalar RipNetworkA.host0.eth[0].mac passedUpPk:sum(packetBytes) 4960
scalar RipNetworkA.host0.eth[0].mac packetDropIncorrectlyReceived:count 0
scalar RipNetworkA.host0.eth[0].mac packetDropIncorrectlyReceived:sum(packetBytes) 0
scalar RipNetworkA.host0.eth[0].mac packetDropInterfaceDown:count 0
scalar RipNetworkA.host0.eth[0].mac packetDropInterfaceDown:sum(packetBytes) 0
scalar RipNetworkA.host0.eth[0].mac packetDropNotAddressedToUs:count 0
scalar RipNetworkA.host0.eth[0].mac packetDropNotAddressedToUs:sum(packetBytes) 0
scalar RipNetworkA.host0.eth[0] packetDropInterfaceDown:count 0
scalar RipNetworkA.host0.eth[0] packetDropInterfaceDown:sum(packetBytes) 0
scalar RipNetworkA.host0.eth[0] packetDropNoCarrier:count 0
scalar RipNetworkA.host0.eth[0] packetDropNoCarrier:sum(packetBytes) 0
scalar RipNetworkA.host0.ipv4.ip packetDropAddressResolutionFailed:count 0
scalar RipNetworkA.host0.ipv4.ip packetDropAddressResolutionFailed:sum(packetBytes) 0
scalar RipNetworkA.host0.ipv4.ip packetDropHopLimitReached:count 0
scalar RipNetworkA.host0.ipv4.ip packetDropHopLimitReached:sum(packetBytes) 0
scalar RipNetworkA.host0.ipv4.ip packetDropForwardingDisabled:count 0
scalar RipNetworkA.host0.ipv4.ip packetDropForwardingDisabled:sum(packetBytes) 0
scalar RipNetworkA.host0.ipv4.ip packetDropLifetimeExpired:count 0
scalar RipNetworkA.host0.ipv4.ip packetDropLifetimeExpired:sum(packetBytes) 0
scalar RipNetworkA.host0.ipv4.ip packetDropNoInterfaceFound:count 0
scalar RipNetworkA.host0.ipv4.ip packetDropNoInterfaceFound:sum(packetBytes) 0
scalar RipNetworkA.host0.ipv4.ip packetDropNoRouteFound:count 0
scalar RipNetworkA.host0.ipv4.ip packetDropNoRouteFound:sum(packetBytes) 0
scalar RipNetworkA.host0.ipv4.ip packetDropUndefined:count 0
scalar RipNetworkA.host0.ipv4.ip packetDropUndefined:sum(packetBytes) 0
scalar RipNetworkA.host0.udp packetReceived:count 0
scalar RipNetworkA.host0.udp packetReceived:sum(packetBytes) 0
scalar RipNetworkA.host0.udp packetSent:count 0
scalar RipNetworkA.host0.udp packetSent:sum(packetBytes) 0
scalar RipNetworkA.host0.udp passedUpPk:count 0
scalar RipNetworkA.host0.udp droppedPkWrongPort:count 0
scalar RipNetworkA.host0.udp droppedPkBadChecksum:count 0
scalar RipNetworkA.host1.ethernet pauseSent:count 0
scalar RipNetworkA.host1.ethernet pauseSent:sum 0
scalar RipNetworkA.host1.ethernet decapPk:count 34
scalar RipNetworkA.host1.ethernet decapPk:sum(packetBytes) 4348
scalar RipNetworkA.host1.ethernet encapPk:count 0
scalar RipNetworkA.host1.ethernet encapPk:sum(packetBytes) 0
scalar RipNetworkA.host1.lo[0].lo rcvdPkFromHl:count 0
scalar RipNetworkA.host1.lo[0].lo rcvdPkFromHl:sum(packetBytes) 0
scalar RipNetworkA.host1.lo[0].lo passedUpPk:count 0
scalar RipNetworkA.host1.lo[0].lo passedUpPk:sum(packetBytes) 0
scalar RipNetworkA.host1.lo[0] packetDropInterfaceDown:count 0
scalar RipNetworkA.host1.lo[0] packetDropInterfaceDown:sum(packetBytes) 0
scalar RipNetworkA.host1.lo[0] packetDropNoCarrier:count 0
scalar RipNetworkA.host1.lo[0] packetDropNoCarrier:sum(packetBytes) 0
scalar RipNetworkA.host1.eth[0].queue queueLength:last 0
scalar RipNetworkA.host1.eth[0].queue queueLength:max 0
scalar RipNetworkA.host1.eth[0].queue queueLength:timeavg 0
scalar RipNetworkA.host1.eth[0].queue queueBitLength:last 0
scalar RipNetworkA.host1.eth[0].queue queueBitLength:max 0
scalar RipNetworkA.host1.eth[0].queue queueBitLength:timeavg 0
scalar RipNetworkA.host1.eth[0].queue outgoingPackets:count 0
scalar RipNetworkA.host1.eth[0].queue outgoingPacketLengths:sum 0
scalar RipNetworkA.host1.eth[0].queue incomingPackets:count 0
scalar RipNetworkA.host1.eth[0].queue incomingPacketLengths:sum 0
scalar RipNetworkA.host1.eth[0].queue droppedPacketsQueueOverflow:count 0
scalar RipNetworkA.host1.eth[0].queue droppedPacketLengthsQueueOverflow:sum 0
scalar RipNetworkA.host1.eth[0].mac "simulated time" 1000
scalar RipNetworkA.host1.eth[0].mac full-duplex 1
scalar RipNetworkA.host1.eth[0].mac "frames/sec sent" 0
scalar RipNetworkA.host1.eth[0].mac "frames/sec rcvd" 0.034000000000000002
scalar RipNetworkA.host1.eth[0].mac "bits/sec sent" 0
scalar RipNetworkA.host1.eth[0].mac "bits/sec rcvd" 39.68
scalar RipNetworkA.host1.eth[0].mac "rx channel idle (%)" 99.999958144000004
scalar RipNetworkA.host1.eth[0].mac "rx channel utilization (%)" 4.1856e-05
scalar RipNetworkA.host1.eth[0].mac rxPausePkUnits:count 0
scalar RipNetworkA.host1.eth[0].mac rxPausePkUnits:sum 0
scalar RipNetworkA.host1.eth[0].mac txPausePkUnits:count 0
scalar RipNetworkA.host1.eth[0].mac txPausePkUnits:sum 0
scalar RipNetworkA.host1.eth[0].mac rxPkOk:count 34
scalar RipNetworkA.host1.eth[0].mac rxPkOk:sum(packetBytes) 4960
scalar RipNetworkA.host1.eth[0].mac txPk:count 0
scalar RipNetworkA.host1.eth[0].mac txPk:sum(packetBytes) 0
scalar RipNetworkA.host1.eth[0].mac packetReceivedFromUpper:count 0
scalar RipNetworkA.host1.eth[0].mac packetReceivedFromUpper:sum(packetBytes) 0
scalar RipNetworkA.host1.eth[0].mac passedUpPk:count 34
scalar RipNetworkA.host1.eth[0].mac passedUpPk:sum(packetBytes) 4960
scalar RipNetworkA.host1.eth[0].mac packetDropIncorrectlyReceived:count 0
scalar RipNetworkA.host1.eth[0].mac packetDropIncorrectlyReceived:sum(packetBytes) 0
scalar RipNetworkA.host1.eth[0].mac packetDropInterfaceDown:count 0
scalar RipNetworkA.host1.eth[0].mac packetDropInterfaceDown:sum(packetBytes) 0
scalar RipNetworkA.host1.eth[0].mac packetDropNotAddressedToUs:count 0
scalar RipNetworkA.host1.eth[0].mac packetDropNotAddressedToUs:sum(packetBytes) 0
scalar RipNetworkA.host1.eth[0] packetDropInterfaceDown:count 0
scalar RipNetworkA.host1.eth[0] packetDropInterfaceDown:sum(packetBytes) 0
scalar RipNetworkA.host1.eth[0] packetDropNoCarrier:count 0
scalar RipNetworkA.host1.eth[0] packetDropNoCarrier:sum(packetBytes) 0
scalar RipNetworkA.host1.ipv4.ip packetDropAddressResolutionFailed:count 0
scalar RipNetworkA.host1.ipv4.ip packetDropAddressResolutionFailed:sum(packetBytes) 0
scalar RipNetworkA.host1.ipv4.ip packetDropHopLimitReached:count 0
scalar RipNetworkA.host1.ipv4.ip packetDropHopLimitReached:sum(packetBytes) 0
scalar RipNetworkA.host1.ipv4.ip packetDropForwardingDisabled:count 0
scalar RipNetworkA.host1.ipv4.ip packetDropForwardingDisabled:sum(packetBytes) 0
scalar RipNetworkA.host1.ipv4.ip packetDropLifetimeExpired:count 0
scalar RipNetworkA.host1.ipv4.ip packetDropLifetimeExpired:sum(packetBytes) 0
scalar RipNetworkA.host1.ipv4.ip packetDropNoInterfaceFound:count 0
scalar RipNetworkA.host1.ipv4.ip packetDropNoInterfaceFound:sum(packetBytes) 0
scalar RipNetworkA.host1.ipv4.ip packetDropNoRouteFound:count 0
scalar RipNetworkA.host1.ipv4.ip packetDropNoRouteFound:sum(packetBytes) 0
scalar RipNetworkA.host1.ipv4.ip packetDropUndefined:count 0
scalar RipNetworkA.host1.ipv4.ip packetDropUndefined:sum(packetBytes) 0
scalar RipNetworkA.host1.udp packetReceived:count 0
scalar RipNetworkA.host1.udp packetReceived:sum(packetBytes) 0
scalar RipNetworkA.host1.udp packetSent:count 0
scalar RipNetworkA.host1.udp packetSent:sum(packetBytes) 0
scalar RipNetworkA.host1.udp passedUpPk:count 0
scalar RipNetworkA.host1.udp droppedPkWrongPort:count 0
scalar RipNetworkA.host1.udp droppedPkBadChecksum:count 0
scalar RipNetworkA.host2.ethernet pauseSent:count 0
scalar RipNetworkA.host2.ethernet pauseSent:sum 0
scalar RipNetworkA.host2.ethernet decapPk:count 34
scalar RipNetworkA.host2.ethernet decapPk:sum(packetBytes) 4348
scalar RipNetworkA.host2.ethernet encapPk:count 0
scalar RipNetworkA.host2.ethernet encapPk:sum(packetBytes) 0
scalar RipNetworkA.host2.lo[0].lo rcvdPkFromHl:count 0
scalar RipNetworkA.host2.lo[0].lo rcvdPkFromHl:sum(packetBytes) 0
scalar RipNetworkA.host2.lo[0].lo passedUpPk:count 0
scalar RipNetworkA.host2.lo[0].lo passedUpPk:sum(packetBytes) 0
scalar RipNetworkA.host2.lo[0] packetDropInterfaceDown:count 0
scalar RipNetworkA.host2.lo[0] packetDropInterfaceDown:sum(packetBytes) 0
scalar RipNetworkA.host2.lo[0] packetDropNoCarrier:count 0
scalar RipNetworkA.host2.lo[0] packetDropNoCarrier:sum(packetBytes) 0
scalar RipNetworkA.host2.eth[0].queue queueLength:last 0
scalar RipNetworkA.host2.eth[0].queue queueLength:max 0
scalar RipNetworkA.host2.eth[0].queue queueLength:timeavg 0
scalar RipNetworkA.host2.eth[0].queue queueBitLength:last 0
scalar RipNetworkA.host2.eth[0].queue queueBitLength:max 0
scalar RipNetworkA.host2.eth[0].queue queueBitLength:timeavg 0
scalar RipNetworkA.host2.eth[0].queue outgoingPackets:count 0
scalar RipNetworkA.host2.eth[0].queue outgoingPacketLengths:sum 0
scalar RipNetworkA.host2.eth[0].queue incomingPackets:count 0
scalar RipNetworkA.host2.eth[0].queue incomingPacketLengths:sum 0
scalar RipNetworkA.host2.eth[0].queue droppedPacketsQueueOverflow:count 0
scalar RipNetworkA.host2.eth[0].queue droppedPacketLengthsQueueOverflow:sum 0
scalar RipNetworkA.host2.eth[0].mac "simulated time" 1000
scalar RipNetworkA.host2.eth[0].mac full-duplex 1
scalar RipNetworkA.host2.eth[0].mac "frames/sec sent" 0
scalar RipNetworkA.host2.eth[0].mac "frames/sec rcvd" 0.034000000000000002
scalar RipNetworkA.host2.eth[0].mac "bits/sec sent" 0
scalar RipNetworkA.host2.eth[0].mac "bits/sec rcvd" 39.68
scalar RipNetworkA.host2.eth[0].mac "rx channel idle (%)" 99.999958144000004
scalar RipNetworkA.host2.eth[0].mac "rx channel utilization (%)" 4.1856e-05
scalar RipNetworkA.host2.eth[0].mac rxPausePkUnits:count 0
scalar RipNetworkA.host2.eth[0].mac rxPausePkUnits:sum 0
scalar RipNetworkA.host2.eth[0].mac txPausePkUnits:count 0
scalar RipNetworkA.host2.eth[0].mac txPausePkUnits:sum 0
scalar RipNetworkA.host2.eth[0].mac rxPkOk:count 34
scalar RipNetworkA.host2.eth[0].mac rxPkOk:sum(packetBytes) 4960
scalar RipNetworkA.host2.eth[0].mac txPk:count 0
scalar RipNetworkA.host2.eth[0].mac txPk:sum(packetBytes) 0
scalar RipNetworkA.host2.eth[0].mac packetReceivedFromUpper:count 0
scalar RipNetworkA.host2.eth[0].mac packetReceivedFromUpper:sum(packetBytes) 0
scalar RipNetworkA.host2.eth[0].mac passedUpPk:count 34
scalar RipNetworkA.host2.eth[0].mac passedUpPk:sum(packetBytes) 4960
scalar RipNetworkA.host2.eth[0].mac packetDropIncorrectlyReceived:count 0
scalar RipNetworkA.host2.eth[0].mac packetDropIncorrectlyReceived:sum(packetBytes) 0
scalar RipNetworkA.host2.eth[0].mac packetDropInterfaceDown:count 0
scalar RipNetworkA.host2.eth[0].mac packetDropInterfaceDown:sum(packetBytes) 0
scalar RipNetworkA.host2.eth[0].mac packetDropNotAddressedToUs:count 0
scalar RipNetworkA.host2.eth[0].mac packetDropNotAddressedToUs:sum(packetBytes) 0
scalar RipNetworkA.host2.eth[0] packetDropInterfaceDown:count 0
scalar RipNetworkA.host2.eth[0] packetDropInterfaceDown:sum(packetBytes) 0
scalar RipNetworkA.host2.eth[0] packetDropNoCarrier:count 0
scalar RipNetworkA.host2.eth[0] packetDropNoCarrier:sum(packetBytes) 0
scalar RipNetworkA.host2.ipv4.ip packetDropAddressResolutionFailed:count 0
scalar RipNetworkA.host2.ipv4.ip packetDropAddressResolutionFailed:sum(packetBytes) 0
scalar RipNetworkA.host2.ipv4.ip packetDropHopLimitReached:count 0
scalar RipNetworkA.host2.ipv4.ip packetDropHopLimitReached:sum(packetBytes) 0
scalar RipNetworkA.host2.ipv4.ip packetDropForwardingDisabled:count 0
scalar RipNetworkA.host2.ipv4.ip packetDropForwardingDisabled:sum(packetBytes) 0
scalar RipNetworkA.host2.ipv4.ip packetDropLifetimeExpired:count 0
scalar RipNetworkA.host2.ipv4.ip packetDropLifetimeExpired:sum(packetBytes) 0
scalar RipNetworkA.host2.ipv4.ip packetDropNoInterfaceFound:count 0
scalar RipNetworkA.host2.ipv4.ip packetDropNoInterfaceFound:sum(packetBytes) 0
scalar RipNetworkA.host2.ipv4.ip packetDropNoRouteFound:count 0
scalar RipNetworkA.host2.ipv4.ip packetDropNoRouteFound:sum(packetBytes) 0
scalar RipNetworkA.host2.ipv4.ip packetDropUndefined:count 0
scalar RipNetworkA.host2.ipv4.ip packetDropUndefined:sum(packetBytes) 0
scalar RipNetworkA.host2.udp packetReceived:count 0
scalar RipNetworkA.host2.udp packetReceived:sum(packetBytes) 0
scalar RipNetworkA.host2.udp packetSent:count 0
scalar RipNetworkA.host2.udp packetSent:sum(packetBytes) 0
scalar RipNetworkA.host2.udp passedUpPk:count 0
scalar RipNetworkA.host2.udp droppedPkWrongPort:count 0
scalar RipNetworkA.host2.udp droppedPkBadChecksum:count 0
scalar RipNetworkA.host3.ethernet pauseSent:count 0
scalar RipNetworkA.host3.ethernet pauseSent:sum 0
scalar RipNetworkA.host3.ethernet decapPk:count 100
scalar RipNetworkA.host3.ethernet decapPk:sum(packetBytes) 7840
scalar RipNetworkA.host3.ethernet encapPk:count 0
scalar RipNetworkA.host3.ethernet encapPk:sum(packetBytes) 0
scalar RipNetworkA.host3.lo[0].lo rcvdPkFromHl:count 0
scalar RipNetworkA.host3.lo[0].lo rcvdPkFromHl:sum(packetBytes) 0
scalar RipNetworkA.host3.lo[0].lo passedUpPk:count 0
scalar RipNetworkA.host3.lo[0].lo passedUpPk:sum(packetBytes) 0
scalar RipNetworkA.host3.lo[0] packetDropInterfaceDown:count 0
scalar RipNetworkA.host3.lo[0] packetDropInterfaceDown:sum(packetBytes) 0
scalar RipNetworkA.host3.lo[0] packetDropNoCarrier:count 0
scalar RipNetworkA.host3.lo[0] packetDropNoCarrier:sum(packetBytes) 0
scalar RipNetworkA.host3.eth[0].queue queueLength:last 0
scalar RipNetworkA.host3.eth[0].queue queueLength:max 0
scalar RipNetworkA.host3.eth[0].queue queueLength:timeavg 0
scalar RipNetworkA.host3.eth[0].queue queueBitLength:last 0
scalar RipNetworkA.host3.eth[0].queue queueBitLength:max 0
scalar RipNetworkA.host3.eth[0].queue queueBitLength:timeavg 0
scalar RipNetworkA.host3.eth[0].queue outgoingPackets:count 0
scalar RipNetworkA.host3.eth[0].queue outgoingPacketLengths:sum 0
scalar RipNetworkA.host3.eth[0].queue incomingPackets:count 0
scalar RipNetworkA.host3.eth[0].queue incomingPacketLengths:sum 0
scalar RipNetworkA.host3.eth[0].queue droppedPacketsQueueOverflow:count 0
scalar RipNetworkA.host3.eth[0].queue droppedPacketLengthsQueueOverflow:sum 0
scalar RipNetworkA.host3.eth[0].mac "simulated time" 1000
scalar RipNetworkA.host3.eth[0].mac full-duplex 1
scalar RipNetworkA.host3.eth[0].mac "frames/sec sent" 0
scalar RipNetworkA.host3.eth[0].mac "frames/sec rcvd" 0.10000000000000001
scalar RipNetworkA.host3.eth[0].mac "bits/sec sent" 0
scalar RipNetworkA.host3.eth[0].mac "bits/sec rcvd" 77.120000000000005
scalar RipNetworkA.host3.eth[0].mac "rx channel idle (%)" 99.999916479999996
scalar RipNetworkA.host3.eth[0].mac "rx channel utilization (%)" 8.352e-05
scalar RipNetworkA.host3.eth[0].mac rxPausePkUnits:count 0
scalar RipNetworkA.host3.eth[0].mac rxPausePkUnits:sum 0
scalar RipNetworkA.host3.eth[0].mac txPausePkUnits:count 0
scalar RipNetworkA.host3.eth[0].mac txPausePkUnits:sum 0
scalar RipNetworkA.host3.eth[0].mac rxPkOk:count 100
scalar RipNetworkA.host3.eth[0].mac rxPkOk:sum(packetBytes) 9640
scalar RipNetworkA.host3.eth[0].mac txPk:count 0
scalar RipNetworkA.host3.eth[0].mac txPk:sum(packetBytes) 0
scalar RipNetworkA.host3.eth[0].mac packetReceivedFromUpper:count 0
scalar RipNetworkA.host3.eth[0].mac packetReceivedFromUpper:sum(packetBytes) 0
scalar RipNetworkA.host3.eth[0].mac passedUpPk:count 100
scalar RipNetworkA.host3.eth[0].mac passedUpPk:sum(packetBytes) 9640
scalar RipNetworkA.host3.eth[0].mac packetDropIncorrectlyReceived:count 0
scalar RipNetworkA.host3.eth[0].mac packetDropIncorrectlyReceived:sum(packetBytes) 0
scalar RipNetworkA.host3.eth[0].mac packetDropInterfaceDown:count 0
scalar RipNetworkA.host3.eth[0].mac packetDropInterfaceDown:sum(packetBytes) 0
scalar RipNetworkA.host3.eth[0].mac packetDropNotAddressedToUs:count 0
scalar RipNetworkA.host3.eth[0].mac packetDropNotAddressedToUs:sum(packetBytes) 0
scalar RipNetworkA.host3.eth[0] packetDropInterfaceDown:count 0
scalar RipNetworkA.host3.eth[0] packetDropInterfaceDown:sum(packetBytes) 0
scalar RipNetworkA.host3.eth[0] packetDropNoCarrier:count 0
scalar RipNetworkA.host3.eth[0] packetDropNoCarrier:sum(packetBytes) 0
scalar RipNetworkA.host3.ipv4.ip packetDropAddressResolutionFailed:count 0
scalar RipNetworkA.host3.ipv4.ip packetDropAddressResolutionFailed:sum(packetBytes) 0
scalar RipNetworkA.host3.ipv4.ip packetDropHopLimitReached:count 0
scalar RipNetworkA.host3.ipv4.ip packetDropHopLimitReached:sum(packetBytes) 0
scalar RipNetworkA.host3.ipv4.ip packetDropForwardingDisabled:count 0
scalar RipNetworkA.host3.ipv4.ip packetDropForwardingDisabled:sum(packetBytes) 0
scalar RipNetworkA.host3.ipv4.ip packetDropLifetimeExpired:count 0
scalar RipNetworkA.host3.ipv4.ip packetDropLifetimeExpired:sum(packetBytes) 0
scalar RipNetworkA.host3.ipv4.ip packetDropNoInterfaceFound:count 0
scalar RipNetworkA.host3.ipv4.ip packetDropNoInterfaceFound:sum(packetBytes) 0
scalar RipNetworkA.host3.ipv4.ip packetDropNoRouteFound:count 0
scalar RipNetworkA.host3.ipv4.ip packetDropNoRouteFound:sum(packetBytes) 0
scalar RipNetworkA.host3.ipv4.ip packetDropUndefined:count 0
scalar RipNetworkA.host3.ipv4.ip packetDropUndefined:sum(packetBytes) 0
scalar RipNetworkA.host3.udp packetReceived:count 0
scalar RipNetworkA.host3.udp packetReceived:sum(packetBytes) 0
scalar RipNetworkA.host3.udp packetSent:count 0
scalar RipNetworkA.host3.udp packetSent:sum(packetBytes) 0
scalar RipNetworkA.host3.udp passedUpPk:count 0
scalar RipNetworkA.host3.udp droppedPkWrongPort:count 0
scalar RipNetworkA.host3.udp droppedPkBadChecksum:count 0
scalar RipNetworkA.router0.ethernet pauseSent:count 0
scalar RipNetworkA.router0.ethernet pauseSent:sum 0
scalar RipNetworkA.router0.ethernet decapPk:count 68
scalar RipNetworkA.router0.ethernet decapPk:sum(packetBytes) 6116
scalar RipNetworkA.router0.ethernet encapPk:count 104
scalar RipNetworkA.router0.ethernet encapPk:sum(packetBytes) 11268
scalar RipNetworkA.router0.lo[0].lo rcvdPkFromHl:count 0
scalar RipNetworkA.router0.lo[0].lo rcvdPkFromHl:sum(packetBytes) 0
scalar RipNetworkA.router0.lo[0].lo passedUpPk:count 0
scalar RipNetworkA.router0.lo[0].lo passedUpPk:sum(packetBytes) 0
scalar RipNetworkA.router0.lo[0] packetDropInterfaceDown:count 0
scalar RipNetworkA.router0.lo[0] packetDropInterfaceDown:sum(packetBytes) 0
scalar RipNetworkA.router0.lo[0] packetDropNoCarrier:count 0
scalar RipNetworkA.router0.lo[0] packetDropNoCarrier:sum(packetBytes) 0
scalar RipNetworkA.router0.eth[0].queue queueLength:last 0
scalar RipNetworkA.router0.eth[0].queue queueLength:max 0
scalar RipNetworkA.router0.eth[0].queue queueLength:timeavg 0
scalar RipNetworkA.router0.eth[0].queue queueBitLength:last 0
scalar RipNetworkA.router0.eth[0].queue queueBitLength:max 0
scalar RipNetworkA.router0.eth[0].queue queueBitLength:timeavg 0
scalar RipNetworkA.router0.eth[0].queue outgoingPackets:count 34
scalar RipNetworkA.router0.eth[0].queue outgoingPacketLengths:sum 39680
scalar RipNetworkA.router0.eth[0].queue incomingPackets:count 34
scalar RipNetworkA.router0.eth[0].queue incomingPacketLengths:sum 39680
scalar RipNetworkA.router0.eth[0].queue droppedPacketsQueueOverflow:count 0
scalar RipNetworkA.router0.eth[0].queue droppedPacketLengthsQueueOverflow:sum 0
scalar RipNetworkA.router0.eth[0].mac "simulated time" 1000
scalar RipNetworkA.router0.eth[0].mac full-duplex 1
scalar RipNetworkA.router0.eth[0].mac "frames/sec sent" 0.034000000000000002
scalar RipNetworkA.router0.eth[0].mac "frames/sec rcvd" 0
scalar RipNetworkA.router0.eth[0].mac "bits/sec sent" 39.68
scalar RipNetworkA.router0.eth[0].mac "bits/sec rcvd" 0
scalar RipNetworkA.router0.eth[0].mac "rx channel idle (%)" 100
scalar RipNetworkA.router0.eth[0].mac "rx channel utilization (%)" 0
scalar RipNetworkA.router0.eth[0].mac rxPausePkUnits:count 0
scalar RipNetworkA.router0.eth[0].mac rxPausePkUnits:sum 0
scalar RipNetworkA.router0.eth[0].mac txPausePkUnits:count 0
scalar RipNetworkA.router0.eth[0].mac txPausePkUnits:sum 0
scalar RipNetworkA.router0.eth[0].mac rxPkOk:count 0
scalar RipNetworkA.router0.eth[0].mac rxPkOk:sum(packetBytes) 0
scalar RipNetworkA.router0.eth[0].mac txPk:count 34
scalar RipNetworkA.router0.eth[0].mac txPk:sum(packetBytes) 4960
scalar RipNetworkA.router0.eth[0].mac packetReceivedFromUpper:count 34
scalar RipNetworkA.router0.eth[0].mac packetReceivedFromUpper:sum(packetBytes) 4960
scalar RipNetworkA.router0.eth[0].mac passedUpPk:count 0
scalar RipNetworkA.router0.eth[0].mac passedUpPk:sum(packetBytes) 0
scalar RipNetworkA.router0.eth[0].mac packetDropIncorrectlyReceived:count 0
scalar RipNetworkA.router0.eth[0].mac packetDropIncorrectlyReceived:sum(packetBytes) 0
scalar RipNetworkA.router0.eth[0].mac packetDropInterfaceDown:count 0
scalar RipNetworkA.router0.eth[0].mac packetDropInterfaceDown:sum(packetBytes) 0
scalar RipNetworkA.router0.eth[0].mac packetDropNotAddressedToUs:count 0
scalar RipNetworkA.router0.eth[0].mac packetDropNotAddressedToUs:sum(packetBytes) 0
scalar RipNetworkA.router0.eth[0] packetDropInterfaceDown:count 0
scalar RipNetworkA.router0.eth[0] packetDropInterfaceDown:sum(packetBytes) 0
scalar RipNetworkA.router0.eth[0] packetDropNoCarrier:count 0
scalar RipNetworkA.router0.eth[0] packetDropNoCarrier:sum(packetBytes) 0
scalar RipNetworkA.router0.eth[1].queue queueLength:last 0
scalar RipNetworkA.router0.eth[1].queue queueLength:max 0
scalar RipNetworkA.router0.eth[1].queue queueLength:timeavg 0
scalar RipNetworkA.router0.eth[1].queue queueBitLength:last 0
scalar RipNetworkA.router0.eth[1].queue queueBitLength:max 0
scalar RipNetworkA.router0.eth[1].queue queueBitLength:timeavg 0
scalar RipNetworkA.router0.eth[1].queue outgoingPackets:count 35
scalar RipNetworkA.router0.eth[1].queue outgoingPacketLengths:sum 30160
scalar RipNetworkA.router0.eth[1].queue incomingPackets:count 35
scalar RipNetworkA.router0.eth[1].queue incomingPacketLengths:sum 30160
scalar RipNetworkA.router0.eth[1].queue droppedPacketsQueueOverflow:count 0
scalar RipNetworkA.router0.eth[1].queue droppedPacketLengthsQueueOverflow:sum 0
scalar RipNetworkA.router0.eth[1].mac "simulated time" 1000
scalar RipNetworkA.router0.eth[1].mac full-duplex 1
scalar RipNetworkA.router0.eth[1].mac "frames/sec sent" 0.035000000000000003
scalar RipNetworkA.router0.eth[1].mac "frames/sec rcvd" 0.034000000000000002
scalar RipNetworkA.router0.eth[1].mac "bits/sec sent" 30.16
scalar RipNetworkA.router0.eth[1].mac "bits/sec rcvd" 29.440000000000001
scalar RipNetworkA.router0.eth[1].mac "rx channel idle (%)" 99.999683840000003
scalar RipNetworkA.router0.eth[1].mac "rx channel utilization (%)" 0.00031616000000000001
scalar RipNetworkA.router0.eth[1].mac rxPausePkUnits:count 0
scalar RipNetworkA.router0.eth[1].mac rxPausePkUnits:sum 0
scalar RipNetworkA.router0.eth[1].mac txPausePkUnits:count 0
scalar RipNetworkA.router0.eth[1].mac txPausePkUnits:sum 0
scalar RipNetworkA.router0.eth[1].mac rxPkOk:count 34
scalar RipNetworkA.router0.eth[1].mac rxPkOk:sum(packetBytes) 3680
scalar RipNetworkA.router0.eth[1].mac txPk:count 35
scalar RipNetworkA.router0.eth[1].mac txPk:sum(packetBytes) 3770
scalar RipNetworkA.router0.eth[1].mac packetReceivedFromUpper:count 35
scalar RipNetworkA.router0.eth[1].mac packetReceivedFromUpper:sum(packetBytes) 3770
scalar RipNetworkA.router0.eth[1].mac passedUpPk:count 34
scalar RipNetworkA.router0.eth[1].mac passedUpPk:sum(packetBytes) 3680
scalar RipNetworkA.router0.eth[1].mac packetDropIncorrectlyReceived:count 0
scalar RipNetworkA.router0.eth[1].mac packetDropIncorrectlyReceived:sum(packetBytes) 0
scalar RipNetworkA.router0.eth[1].mac packetDropInterfaceDown:count 0
scalar RipNetworkA.router0.eth[1].mac packetDropInterfaceDown:sum(packetBytes) 0
scalar RipNetworkA.router0.eth[1].mac packetDropNotAddressedToUs:count 0
scalar RipNetworkA.router0.eth[1].mac packetDropNotAddressedToUs:sum(packetBytes) 0
scalar RipNetworkA.router0.eth[1] packetDropInterfaceDown:count 0
scalar RipNetworkA.router0.eth[1] packetDropInterfaceDown:sum(packetBytes) 0
scalar RipNetworkA.router0.eth[1] packetDropNoCarrier:count 0
scalar RipNetworkA.router0.eth[1] packetDropNoCarrier:sum(packetBytes) 0
scalar RipNetworkA.router0.eth[2].queue queueLength:last 0
scalar RipNetworkA.router0.eth[2].queue queueLength:max 0
scalar RipNetworkA.router0.eth[2].queue queueLength:timeavg 0
scalar RipNetworkA.router0.eth[2].queue queueBitLength:last 0
scalar RipNetworkA.router0.eth[2].queue queueBitLength:max 0
scalar RipNetworkA.router0.eth[2].queue queueBitLength:timeavg 0
scalar RipNetworkA.router0.eth[2].queue outgoingPackets:count 35
scalar RipNetworkA.router0.eth[2].queue outgoingPacketLengths:sum 35280
scalar RipNetworkA.router0.eth[2].queue incomingPackets:count 35
scalar RipNetworkA.router0.eth[2].queue incomingPacketLengths:sum 35280
scalar RipNetworkA.router0.eth[2].queue droppedPacketsQueueOverflow:count 0
scalar RipNetworkA.router0.eth[2].queue droppedPacketLengthsQueueOverflow:sum 0
scalar RipNetworkA.router0.eth[2].mac "simulated time" 1000
scalar RipNetworkA.router0.eth[2].mac full-duplex 1
scalar RipNetworkA.router0.eth[2].mac "frames/sec sent" 0.035000000000000003
scalar RipNetworkA.router0.eth[2].mac "frames/sec rcvd" 0.034000000000000002
scalar RipNetworkA.router0.eth[2].mac "bits/sec sent" 35.280000000000001
scalar RipNetworkA.router0.eth[2].mac "bits/sec rcvd" 29.280000000000001
scalar RipNetworkA.router0.eth[2].mac "rx channel idle (%)" 99.999968543999998
scalar RipNetworkA.router0.eth[2].mac "rx channel utilization (%)" 3.1455999999999998e-05
scalar RipNetworkA.router0.eth[2].mac rxPausePkUnits:count 0
scalar RipNetworkA.router0.eth[2].mac rxPausePkUnits:sum 0
scalar RipNetworkA.router0.eth[2].mac txPausePkUnits:count 0
scalar RipNetworkA.router0.eth[2].mac txPausePkUnits:sum 0
scalar RipNetworkA.router0.eth[2].mac rxPkOk:count 34
scalar RipNetworkA.router0.eth[2].mac rxPkOk:sum(packetBytes) 3660
scalar RipNetworkA.router0.eth[2].mac txPk:count 35
scalar RipNetworkA.router0.eth[2].mac txPk:sum(packetBytes) 4410
scalar RipNetworkA.router0.eth[2].mac packetReceivedFromUpper:count 35
scalar RipNetworkA.router0.eth[2].mac packetReceivedFromUpper:sum(packetBytes) 4410
scalar RipNetworkA.router0.eth[2].mac passedUpPk:count 34
scalar RipNetworkA.router0.eth[2].mac passedUpPk:sum(packetBytes) 3660
scalar RipNetworkA.router0.eth[2].mac packetDropIncorrectlyReceived:count 0
scalar RipNetworkA.router0.eth[2].mac packetDropIncorrectlyReceived:sum(packetBytes) 0
scalar RipNetworkA.router0.eth[2].mac packetDropInterfaceDown:count 0
scalar RipNetworkA.router0.eth[2].mac packetDropInterfaceDown:sum(packetBytes) 0
scalar RipNetworkA.router0.eth[2].mac packetDropNotAddressedToUs:count 0
scalar RipNetworkA.router0.eth[2].mac packetDropNotAddressedToUs:sum(packetBytes) 0
scalar RipNetworkA.router0.eth[2] packetDropInterfaceDown:count 0
scalar RipNetworkA.router0.eth[2] packetDropInterfaceDown:sum(packetBytes) 0
scalar RipNetworkA.router0.eth[2] packetDropNoCarrier:count 0
scalar RipNetworkA.router0.eth[2] packetDropNoCarrier:sum(packetBytes) 0
scalar RipNetworkA.router0.ipv4.ip packetDropAddressResolutionFailed:count 0
scalar RipNetworkA.router0.ipv4.ip packetDropAddressResolutionFailed:sum(packetBytes) 0
scalar RipNetworkA.router0.ipv4.ip packetDropHopLimitReached:count 0
scalar RipNetworkA.router0.ipv4.ip packetDropHopLimitReached:sum(packetBytes) 0
scalar RipNetworkA.router0.ipv4.ip packetDropForwardingDisabled:count 0
scalar RipNetworkA.router0.ipv4.ip packetDropForwardingDisabled:sum(packetBytes) 0
scalar RipNetworkA.router0.ipv4.ip packetDropLifetimeExpired:count 0
scalar RipNetworkA.router0.ipv4.ip packetDropLifetimeExpired:sum(packetBytes) 0
scalar RipNetworkA.router0.ipv4.ip packetDropNoInterfaceFound:count 0
scalar RipNetworkA.router0.ipv4.ip packetDropNoInterfaceFound:sum(packetBytes) 0
scalar RipNetworkA.router0.ipv4.ip packetDropNoRouteFound:count 0
scalar RipNetworkA.router0.ipv4.ip packetDropNoRouteFound:sum(packetBytes) 0
scalar RipNetworkA.router0.ipv4.ip packetDropUndefined:count 0
scalar RipNetworkA.router0.ipv4.ip packetDropUndefined:sum(packetBytes) 0
scalar RipNetworkA.router0.udp packetReceived:count 68
scalar RipNetworkA.router0.udp packetReceived:sum(packetBytes) 4756
scalar RipNetworkA.router0.udp packetSent:count 104
scalar RipNetworkA.router0.udp packetSent:sum(packetBytes) 9188
scalar RipNetworkA.router0.udp passedUpPk:count 68
scalar RipNetworkA.router0.udp droppedPkWrongPort:count 0
scalar RipNetworkA.router0.udp droppedPkBadChecksum:count 0
scalar RipNetworkA.router0.rip numRoutes:last 6
scalar RipNetworkA.router0.rip badResponse:count 0
scalar RipNetworkA.router0.rip rcvdResponse:count 66
scalar RipNetworkA.router0.rip sentUpdate:count 101
scalar RipNetworkA.router0.rip sentRequest:count 3
scalar RipNetworkA.router2.ethernet pauseSent:count 0
scalar RipNetworkA.router2.ethernet pauseSent:sum 0
scalar RipNetworkA.router2.ethernet decapPk:count 64
scalar RipNetworkA.router2.ethernet decapPk:sum(packetBytes) 5808
scalar RipNetworkA.router2.ethernet encapPk:count 68
scalar RipNetworkA.router2.ethernet encapPk:sum(packetBytes) 6096
scalar RipNetworkA.router2.lo[0].lo rcvdPkFromHl:count 0
scalar RipNetworkA.router2.lo[0].lo rcvdPkFromHl:sum(packetBytes) 0
scalar RipNetworkA.router2.lo[0].lo passedUpPk:count 0
scalar RipNetworkA.router2.lo[0].lo passedUpPk:sum(packetBytes) 0
scalar RipNetworkA.router2.lo[0] packetDropInterfaceDown:count 0
scalar RipNetworkA.router2.lo[0] packetDropInterfaceDown:sum(packetBytes) 0
scalar RipNetworkA.router2.lo[0] packetDropNoCarrier:count 0
scalar RipNetworkA.router2.lo[0] packetDropNoCarrier:sum(packetBytes) 0
scalar RipNetworkA.router2.eth[0].queue queueLength:last 0
scalar RipNetworkA.router2.eth[0].queue queueLength:max 0
scalar RipNetworkA.router2.eth[0].queue queueLength:timeavg 0
scalar RipNetworkA.router2.eth[0].queue queueBitLength:last 0
scalar RipNetworkA.router2.eth[0].queue queueBitLength:max 0
scalar RipNetworkA.router2.eth[0].queue queueBitLength:timeavg 0
scalar RipNetworkA.router2.eth[0].queue outgoingPackets:count 34
scalar RipNetworkA.router2.eth[0].queue outgoingPacketLengths:sum 19040
scalar RipNetworkA.router2.eth[0].queue incomingPackets:count 34
scalar RipNetworkA.router2.eth[0].queue incomingPacketLengths:sum 19040
scalar RipNetworkA.router2.eth[0].queue droppedPacketsQueueOverflow:count 0
scalar RipNetworkA.router2.eth[0].queue droppedPacketLengthsQueueOverflow:sum 0
scalar RipNetworkA.router2.eth[0].mac "simulated time" 1000
scalar RipNetworkA.router2.eth[0].mac full-duplex 1
scalar RipNetworkA.router2.eth[0].mac "frames/sec sent" 0.034000000000000002
scalar RipNetworkA.router2.eth[0].mac "frames/sec rcvd" 0.064000000000000001
scalar RipNetworkA.router2.eth[0].mac "bits/sec sent" 19.039999999999999
scalar RipNetworkA.router2.eth[0].mac "bits/sec rcvd" 55.68
scalar RipNetworkA.router2.eth[0].mac "rx channel idle (%)" 99.999430464
scalar RipNetworkA.router2.eth[0].mac "rx channel utilization (%)" 0.00056953600000000004
scalar RipNetworkA.router2.eth[0].mac rxPausePkUnits:count 0
scalar RipNetworkA.router2.eth[0].mac rxPausePkUnits:sum 0
scalar RipNetworkA.router2.eth[0].mac txPausePkUnits:count 0
scalar RipNetworkA.router2.eth[0].mac txPausePkUnits:sum 0
scalar RipNetworkA.router2.eth[0].mac rxPkOk:count 64
scalar RipNetworkA.router2.eth[0].mac rxPkOk:sum(packetBytes) 6960
scalar RipNetworkA.router2.eth[0].mac txPk:count 34
scalar RipNetworkA.router2.eth[0].mac txPk:sum(packetBytes) 2380
scalar RipNetworkA.router2.eth[0].mac packetReceivedFromUpper:count 34
scalar RipNetworkA.router2.eth[0].mac packetReceivedFromUpper:sum(packetBytes) 2380
scalar RipNetworkA.router2.eth[0].mac passedUpPk:count 64
scalar RipNetworkA.router2.eth[0].mac passedUpPk:sum(packetBytes) 6960
scalar RipNetworkA.router2.eth[0].mac packetDropIncorrectlyReceived:count 0
scalar RipNetworkA.router2.eth[0].mac packetDropIncorrectlyReceived:sum(packetBytes) 0
scalar RipNetworkA.router2.eth[0].mac packetDropInterfaceDown:count 0
scalar RipNetworkA.router2.eth[0].mac packetDropInterfaceDown:sum(packetBytes) 0
scalar RipNetworkA.router2.eth[0].mac packetDropNotAddressedToUs:count 0
scalar RipNetworkA.router2.eth[0].mac packetDropNotAddressedToUs:sum(packetBytes) 0
scalar RipNetworkA.router2.eth[0] packetDropInterfaceDown:count 0
scalar RipNetworkA.router2.eth[0] packetDropInterfaceDown:sum(packetBytes) 0
scalar RipNetworkA.router2.eth[0] packetDropNoCarrier:count 0
scalar RipNetworkA.router2.eth[0] packetDropNoCarrier:sum(packetBytes) 0
scalar RipNetworkA.router2.eth[1].queue queueLength:last 0
scalar RipNetworkA.router2.eth[1].queue queueLength:max 0
scalar RipNetworkA.router2.eth[1].queue queueLength:timeavg 0
scalar RipNetworkA.router2.eth[1].queue queueBitLength:last 0
scalar RipNetworkA.router2.eth[1].queue queueBitLength:max 0
scalar RipNetworkA.router2.eth[1].queue queueBitLength:timeavg 0
scalar RipNetworkA.router2.eth[1].queue outgoingPackets:count 34
scalar RipNetworkA.router2.eth[1].queue outgoingPacketLengths:sum 39520
scalar RipNetworkA.router2.eth[1].queue incomingPackets:count 34
scalar RipNetworkA.router2.eth[1].queue incomingPacketLengths:sum 39520
scalar RipNetworkA.router2.eth[1].queue droppedPacketsQueueOverflow:count 0
scalar RipNetworkA.router2.eth[1].queue droppedPacketLengthsQueueOverflow:sum 0
scalar RipNetworkA.router2.eth[1].mac "simulated time" 1000
scalar RipNetworkA.router2.eth[1].mac full-duplex 1
scalar RipNetworkA.router2.eth[1].mac "frames/sec sent" 0.034000000000000002
scalar RipNetworkA.router2.eth[1].mac "frames/sec rcvd" 0
scalar RipNetworkA.router2.eth[1].mac "bits/sec sent" 39.520000000000003
scalar RipNetworkA.router2.eth[1].mac "bits/sec rcvd" 0
scalar RipNetworkA.router2.eth[1].mac "rx channel idle (%)" 100
scalar RipNetworkA.router2.eth[1].mac "rx channel utilization (%)" 0
scalar RipNetworkA.router2.eth[1].mac rxPausePkUnits:count 0
scalar RipNetworkA.router2.eth[1].mac rxPausePkUnits:sum 0
scalar RipNetworkA.router2.eth[1].mac txPausePkUnits:count 0
scalar RipNetworkA.router2.eth[1].mac txPausePkUnits:sum 0
scalar RipNetworkA.router2.eth[1].mac rxPkOk:count 0
scalar RipNetworkA.router2.eth[1].mac rxPkOk:sum(packetBytes) 0
scalar RipNetworkA.router2.eth[1].mac txPk:count 34
scalar RipNetworkA.router2.eth[1].mac txPk:sum(packetBytes) 4940
scalar RipNetworkA.router2.eth[1].mac packetReceivedFromUpper:count 34
scalar RipNetworkA.router2.eth[1].mac packetReceivedFromUpper:sum(packetBytes) 4940
scalar RipNetworkA.router2.eth[1].mac passedUpPk:count 0
scalar RipNetworkA.router2.eth[1].mac passedUpPk:sum(packetBytes) 0
scalar RipNetworkA.router2.eth[1].mac packetDropIncorrectlyReceived:count 0
scalar RipNetworkA.router2.eth[1].mac packetDropIncorrectlyReceived:sum(packetBytes) 0
scalar RipNetworkA.router2.eth[1].mac packetDropInterfaceDown:count 0
scalar RipNetworkA.router2.eth[1].mac packetDropInterfaceDown:sum(packetBytes) 0
scalar RipNetworkA.router2.eth[1].mac packetDropNotAddressedToUs:count 0
scalar RipNetworkA.router2.eth[1].mac packetDropNotAddressedToUs:sum(packetBytes) 0
scalar RipNetworkA.router2.eth[1] packetDropInterfaceDown:count 0
scalar RipNetworkA.router2.eth[1] packetDropInterfaceDown:sum(packetBytes) 0
scalar RipNetworkA.router2.eth[1] packetDropNoCarrier:count 0
scalar RipNetworkA.router2.eth[1] packetDropNoCarrier:sum(packetBytes) 0
scalar RipNetworkA.router2.ipv4.ip packetDropAddressResolutionFailed:count 0
scalar RipNetworkA.router2.ipv4.ip packetDropAddressResolutionFailed:sum(packetBytes) 0
scalar RipNetworkA.router2.ipv4.ip packetDropHopLimitReached:count 0
scalar RipNetworkA.router2.ipv4.ip packetDropHopLimitReached:sum(packetBytes) 0
scalar RipNetworkA.router2.ipv4.ip packetDropForwardingDisabled:count 0
scalar RipNetworkA.router2.ipv4.ip packetDropForwardingDisabled:sum(packetBytes) 0
scalar RipNetworkA.router2.ipv4.ip packetDropLifetimeExpired:count 0
scalar RipNetworkA.router2.ipv4.ip packetDropLifetimeExpired:sum(packetBytes) 0
scalar RipNetworkA.router2.ipv4.ip packetDropNoInterfaceFound:count 0
scalar RipNetworkA.router2.ipv4.ip packetDropNoInterfaceFound:sum(packetBytes) 0
scalar RipNetworkA.router2.ipv4.ip packetDropNoRouteFound:count 0
scalar RipNetworkA.router2.ipv4.ip packetDropNoRouteFound:sum(packetBytes) 0
scalar RipNetworkA.router2.ipv4.ip packetDropUndefined:count 0
scalar RipNetworkA.router2.ipv4.ip packetDropUndefined:sum(packetBytes) 0
scalar RipNetworkA.router2.udp packetReceived:count 64
scalar RipNetworkA.router2.udp packetReceived:sum(packetBytes) 4528
scalar RipNetworkA.router2.udp packetSent:count 68
scalar RipNetworkA.router2.udp packetSent:sum(packetBytes) 4736
scalar RipNetworkA.router2.udp passedUpPk:count 64
scalar RipNetworkA.router2.udp droppedPkWrongPort:count 0
scalar RipNetworkA.router2.udp droppedPkBadChecksum:count 0
scalar RipNetworkA.router2.rip numRoutes:last 6
scalar RipNetworkA.router2.rip badResponse:count 0
scalar RipNetworkA.router2.rip rcvdResponse:count 62
scalar RipNetworkA.router2.rip sentUpdate:count 65
scalar RipNetworkA.router2.rip sentRequest:count 3
scalar RipNetworkA.router1.ethernet pauseSent:count 0
scalar RipNetworkA.router1.ethernet pauseSent:sum 0
scalar RipNetworkA.router1.ethernet decapPk:count 102
scalar RipNetworkA.router1.ethernet decapPk:sum(packetBytes) 7944
scalar RipNetworkA.router1.ethernet encapPk:count 70
scalar RipNetworkA.router1.ethernet encapPk:sum(packetBytes) 6340
scalar RipNetworkA.router1.lo[0].lo rcvdPkFromHl:count 0
scalar RipNetworkA.router1.lo[0].lo rcvdPkFromHl:sum(packetBytes) 0
scalar RipNetworkA.router1.lo[0].lo passedUpPk:count 0
scalar RipNetworkA.router1.lo[0].lo passedUpPk:sum(packetBytes) 0
scalar RipNetworkA.router1.lo[0] packetDropInterfaceDown:count 0
scalar RipNetworkA.router1.lo[0] packetDropInterfaceDown:sum(packetBytes) 0
scalar RipNetworkA.router1.lo[0] packetDropNoCarrier:count 0
scalar RipNetworkA.router1.lo[0] packetDropNoCarrier:sum(packetBytes) 0
scalar RipNetworkA.router1.eth[0].queue queueLength:last 0
scalar RipNetworkA.router1.eth[0].queue queueLength:max 0
scalar RipNetworkA.router1.eth[0].queue queueLength:timeavg 0
scalar RipNetworkA.router1.eth[0].queue queueBitLength:last 0
scalar RipNetworkA.router1.eth[0].queue queueBitLength:max 0
scalar RipNetworkA.router1.eth[0].queue queueBitLength:timeavg 0
scalar RipNetworkA.router1.eth[0].queue outgoingPackets:count 34
scalar RipNetworkA.router1.eth[0].queue outgoingPacketLengths:sum 29440
scalar RipNetworkA.router1.eth[0].queue incomingPackets:count 34
scalar RipNetworkA.router1.eth[0].queue incomingPacketLengths:sum 29440
scalar RipNetworkA.router1.eth[0].queue droppedPacketsQueueOverflow:count 0
scalar RipNetworkA.router1.eth[0].queue droppedPacketLengthsQueueOverflow:sum 0
scalar RipNetworkA.router1.eth[0].mac "simulated time" 1000
scalar RipNetworkA.router1.eth[0].mac full-duplex 1
scalar RipNetworkA.router1.eth[0].mac "frames/sec sent" 0.034000000000000002
scalar RipNetworkA.router1.eth[0].mac "frames/sec rcvd" 0.035000000000000003
scalar RipNetworkA.router1.eth[0].mac "bits/sec sent" 29.440000000000001
scalar RipNetworkA.router1.eth[0].mac "bits/sec rcvd" 30.16
scalar RipNetworkA.router1.eth[0].mac "rx channel idle (%)" 99.999676000000008
scalar RipNetworkA.router1.eth[0].mac "rx channel utilization (%)" 0.00032400000000000001
scalar RipNetworkA.router1.eth[0].mac rxPausePkUnits:count 0
scalar RipNetworkA.router1.eth[0].mac rxPausePkUnits:sum 0
scalar RipNetworkA.router1.eth[0].mac txPausePkUnits:count 0
scalar RipNetworkA.router1.eth[0].mac txPausePkUnits:sum 0
scalar RipNetworkA.router1.eth[0].mac rxPkOk:count 35
scalar RipNetworkA.router1.eth[0].mac rxPkOk:sum(packetBytes) 3770
scalar RipNetworkA.router1.eth[0].mac txPk:count 34
scalar RipNetworkA.router1.eth[0].mac txPk:sum(packetBytes) 3680
scalar RipNetworkA.router1.eth[0].mac packetReceivedFromUpper:count 34
scalar RipNetworkA.router1.eth[0].mac packetReceivedFromUpper:sum(packetBytes) 3680
scalar RipNetworkA.router1.eth[0].mac passedUpPk:count 35
scalar RipNetworkA.router1.eth[0].mac passedUpPk:sum(packetBytes) 3770
scalar RipNetworkA.router1.eth[0].mac packetDropIncorrectlyReceived:count 0
scalar RipNetworkA.router1.eth[0].mac packetDropIncorrectlyReceived:sum(packetBytes) 0
scalar RipNetworkA.router1.eth[0].mac packetDropInterfaceDown:count 0
scalar RipNetworkA.router1.eth[0].mac packetDropInterfaceDown:sum(packetBytes) 0
scalar RipNetworkA.router1.eth[0].mac packetDropNotAddressedToUs:count 0
scalar RipNetworkA.router1.eth[0].mac packetDropNotAddressedToUs:sum(packetBytes) 0
scalar RipNetworkA.router1.eth[0] packetDropInterfaceDown:count 0
scalar RipNetworkA.router1.eth[0] packetDropInterfaceDown:sum(packetBytes) 0
scalar RipNetworkA.router1.eth[0] packetDropNoCarrier:count 0
scalar RipNetworkA.router1.eth[0] packetDropNoCarrier:sum(packetBytes) 0
scalar RipNetworkA.router1.eth[1].queue queueLength:last 0
scalar RipNetworkA.router1.eth[1].queue queueLength:max 0
scalar RipNetworkA.router1.eth[1].queue queueLength:timeavg 0
scalar RipNetworkA.router1.eth[1].queue queueBitLength:last 0
scalar RipNetworkA.router1.eth[1].queue queueBitLength:max 0
scalar RipNetworkA.router1.eth[1].queue queueBitLength:timeavg 0
scalar RipNetworkA.router1.eth[1].queue outgoingPackets:count 36
scalar RipNetworkA.router1.eth[1].queue outgoingPacketLengths:sum 31360
scalar RipNetworkA.router1.eth[1].queue incomingPackets:count 36
scalar RipNetworkA.router1.eth[1].queue incomingPacketLengths:sum 31360
scalar RipNetworkA.router1.eth[1].queue droppedPacketsQueueOverflow:count 0
scalar RipNetworkA.router1.eth[1].queue droppedPacketLengthsQueueOverflow:sum 0
scalar RipNetworkA.router1.eth[1].mac "simulated time" 1000
scalar RipNetworkA.router1.eth[1].mac full-duplex 1
scalar RipNetworkA.router1.eth[1].mac "frames/sec sent" 0.035999999999999997
scalar RipNetworkA.router1.eth[1].mac "frames/sec rcvd" 0.067000000000000004
scalar RipNetworkA.router1.eth[1].mac "bits/sec sent" 31.359999999999999
scalar RipNetworkA.router1.eth[1].mac "bits/sec rcvd" 48.079999999999998
scalar RipNetworkA.router1.eth[1].mac "rx channel idle (%)" 99.999476319999999
scalar RipNetworkA.router1.eth[1].mac "rx channel utilization (%)" 0.00052368
scalar RipNetworkA.router1.eth[1].mac rxPausePkUnits:count 0
scalar RipNetworkA.router1.eth[1].mac rxPausePkUnits:sum 0
scalar RipNetworkA.router1.eth[1].mac txPausePkUnits:count 0
scalar RipNetworkA.router1.eth[1].mac txPausePkUnits:sum 0
scalar RipNetworkA.router1.eth[1].mac rxPkOk:count 67
scalar RipNetworkA.router1.eth[1].mac rxPkOk:sum(packetBytes) 6010
scalar RipNetworkA.router1.eth[1].mac txPk:count 36
scalar RipNetworkA.router1.eth[1].mac txPk:sum(packetBytes) 3920
scalar RipNetworkA.router1.eth[1].mac packetReceivedFromUpper:count 36
scalar RipNetworkA.router1.eth[1].mac packetReceivedFromUpper:sum(packetBytes) 3920
scalar RipNetworkA.router1.eth[1].mac passedUpPk:count 67
scalar RipNetworkA.router1.eth[1].mac passedUpPk:sum(packetBytes) 6010
scalar RipNetworkA.router1.eth[1].mac packetDropIncorrectlyReceived:count 0
scalar RipNetworkA.router1.eth[1].mac packetDropIncorrectlyReceived:sum(packetBytes) 0
scalar RipNetworkA.router1.eth[1].mac packetDropInterfaceDown:count 0
scalar RipNetworkA.router1.eth[1].mac packetDropInterfaceDown:sum(packetBytes) 0
scalar RipNetworkA.router1.eth[1].mac packetDropNotAddressedToUs:count 0
scalar RipNetworkA.router1.eth[1].mac packetDropNotAddressedToUs:sum(packetBytes) 0
scalar RipNetworkA.router1.eth[1] packetDropInterfaceDown:count 0
scalar RipNetworkA.router1.eth[1] packetDropInterfaceDown:sum(packetBytes) 0
scalar RipNetworkA.router1.eth[1] packetDropNoCarrier:count 0
scalar RipNetworkA.router1.eth[1] packetDropNoCarrier:sum(packetBytes) 0
scalar RipNetworkA.router1.ipv4.ip packetDropAddressResolutionFailed:count 0
scalar RipNetworkA.router1.ipv4.ip packetDropAddressResolutionFailed:sum(packetBytes) 0
scalar RipNetworkA.router1.ipv4.ip packetDropHopLimitReached:count 0
scalar RipNetworkA.router1.ipv4.ip packetDropHopLimitReached:sum(packetBytes) 0
scalar RipNetworkA.router1.ipv4.ip packetDropForwardingDisabled:count 0
scalar RipNetworkA.router1.ipv4.ip packetDropForwardingDisabled:sum(packetBytes) 0
scalar RipNetworkA.router1.ipv4.ip packetDropLifetimeExpired:count 0
scalar RipNetworkA.router1.ipv4.ip packetDropLifetimeExpired:sum(packetBytes) 0
scalar RipNetworkA.router1.ipv4.ip packetDropNoInterfaceFound:count 0
scalar RipNetworkA.router1.ipv4.ip packetDropNoInterfaceFound:sum(packetBytes) 0
scalar RipNetworkA.router1.ipv4.ip packetDropNoRouteFound:count 0
scalar RipNetworkA.router1.ipv4.ip packetDropNoRouteFound:sum(packetBytes) 0
scalar RipNetworkA.router1.ipv4.ip packetDropUndefined:count 0
scalar RipNetworkA.router1.ipv4.ip packetDropUndefined:sum(packetBytes) 0
scalar RipNetworkA.router1.udp packetReceived:count 100
scalar RipNetworkA.router1.udp packetReceived:sum(packetBytes) 5840
scalar RipNetworkA.router1.udp packetSent:count 70
scalar RipNetworkA.router1.udp packetSent:sum(packetBytes) 4940
scalar RipNetworkA.router1.udp passedUpPk:count 100
scalar RipNetworkA.router1.udp droppedPkWrongPort:count 0
scalar RipNetworkA.router1.udp droppedPkBadChecksum:count 0
scalar RipNetworkA.router1.rip numRoutes:last 6
scalar RipNetworkA.router1.rip badResponse:count 0
scalar RipNetworkA.router1.rip rcvdResponse:count 98
scalar RipNetworkA.router1.rip sentUpdate:count 68
scalar RipNetworkA.router1.rip sentRequest:count 2
scalar RipNetworkA.host4.ethernet pauseSent:count 0
scalar RipNetworkA.host4.ethernet pauseSent:sum 0
scalar RipNetworkA.host4.ethernet decapPk:count 100
scalar RipNetworkA.host4.ethernet decapPk:sum(packetBytes) 7840
scalar RipNetworkA.host4.ethernet encapPk:count 0
scalar RipNetworkA.host4.ethernet encapPk:sum(packetBytes) 0
scalar RipNetworkA.host4.lo[0].lo rcvdPkFromHl:count 0
scalar RipNetworkA.host4.lo[0].lo rcvdPkFromHl:sum(packetBytes) 0
scalar RipNetworkA.host4.lo[0].lo passedUpPk:count 0
scalar RipNetworkA.host4.lo[0].lo passedUpPk:sum(packetBytes) 0
scalar RipNetworkA.host4.lo[0] packetDropInterfaceDown:count 0
scalar RipNetworkA.host4.lo[0] packetDropInterfaceDown:sum(packetBytes) 0
scalar RipNetworkA.host4.lo[0] packetDropNoCarrier:count 0
scalar RipNetworkA.host4.lo[0] packetDropNoCarrier:sum(packetBytes) 0
scalar RipNetworkA.host4.eth[0].queue queueLength:last 0
scalar RipNetworkA.host4.eth[0].queue queueLength:max 0
scalar RipNetworkA.host4.eth[0].queue queueLength:timeavg 0
scalar RipNetworkA.host4.eth[0].queue queueBitLength:last 0
scalar RipNetworkA.host4.eth[0].queue queueBitLength:max 0
scalar RipNetworkA.host4.eth[0].queue queueBitLength:timeavg 0
scalar RipNetworkA.host4.eth[0].queue outgoingPackets:count 0
scalar RipNetworkA.host4.eth[0].queue outgoingPacketLengths:sum 0
scalar RipNetworkA.host4.eth[0].queue incomingPackets:count 0
scalar RipNetworkA.host4.eth[0].queue incomingPacketLengths:sum 0
scalar RipNetworkA.host4.eth[0].queue droppedPacketsQueueOverflow:count 0
scalar RipNetworkA.host4.eth[0].queue droppedPacketLengthsQueueOverflow:sum 0
scalar RipNetworkA.host4.eth[0].mac "simulated time" 1000
scalar RipNetworkA.host4.eth[0].mac full-duplex 1
scalar RipNetworkA.host4.eth[0].mac "frames/sec sent" 0
scalar RipNetworkA.host4.eth[0].mac "frames/sec rcvd" 0.10000000000000001
scalar RipNetworkA.host4.eth[0].mac "bits/sec sent" 0
scalar RipNetworkA.host4.eth[0].mac "bits/sec rcvd" 77.120000000000005
scalar RipNetworkA.host4.eth[0].mac "rx channel idle (%)" 99.999916479999996
scalar RipNetworkA.host4.eth[0].mac "rx channel utilization (%)" 8.352e-05
scalar RipNetworkA.host4.eth[0].mac rxPausePkUnits:count 0
scalar RipNetworkA.host4.eth[0].mac rxPausePkUnits:sum 0
scalar RipNetworkA.host4.eth[0].mac txPausePkUnits:count 0
scalar RipNetworkA.host4.eth[0].mac txPausePkUnits:sum 0
scalar RipNetworkA.host4.eth[0].mac rxPkOk:count 100
scalar RipNetworkA.host4.eth[0].mac rxPkOk:sum(packetBytes) 9640
scalar RipNetworkA.host4.eth[0].mac txPk:count 0
scalar RipNetworkA.host4.eth[0].mac txPk:sum(packetBytes) 0
scalar RipNetworkA.host4.eth[0].mac packetReceivedFromUpper:count 0
scalar RipNetworkA.host4.eth[0].mac packetReceivedFromUpper:sum(packetBytes) 0
scalar RipNetworkA.host4.eth[0].mac passedUpPk:count 100
scalar RipNetworkA.host4.eth[0].mac passedUpPk:sum(packetBytes) 9640
scalar RipNetworkA.host4.eth[0].mac packetDropIncorrectlyReceived:count 0
scalar RipNetworkA.host4.eth[0].mac packetDropIncorrectlyReceived:sum(packetBytes) 0
scalar RipNetworkA.host4.eth[0].mac packetDropInterfaceDown:count 0
scalar RipNetworkA.host4.eth[0].mac packetDropInterfaceDown:sum(packetBytes) 0
scalar RipNetworkA.host4.eth[0].mac packetDropNotAddressedToUs:count 0
scalar RipNetworkA.host4.eth[0].mac packetDropNotAddressedToUs:sum(packetBytes) 0
scalar RipNetworkA.host4.eth[0] packetDropInterfaceDown:count 0
scalar RipNetworkA.host4.eth[0] packetDropInterfaceDown:sum(packetBytes) 0
scalar RipNetworkA.host4.eth[0] packetDropNoCarrier:count 0
scalar RipNetworkA.host4.eth[0] packetDropNoCarrier:sum(packetBytes) 0
scalar RipNetworkA.host4.ipv4.ip packetDropAddressResolutionFailed:count 0
scalar RipNetworkA.host4.ipv4.ip packetDropAddressResolutionFailed:sum(packetBytes) 0
scalar RipNetworkA.host4.ipv4.ip packetDropHopLimitReached:count 0
scalar RipNetworkA.host4.ipv4.ip packetDropHopLimitReached:sum(packetBytes) 0
scalar RipNetworkA.host4.ipv4.ip packetDropForwardingDisabled:count 0
scalar RipNetworkA.host4.ipv4.ip packetDropForwardingDisabled:sum(packetBytes) 0
scalar RipNetworkA.host4.ipv4.ip packetDropLifetimeExpired:count 0
scalar RipNetworkA.host4.ipv4.ip packetDropLifetimeExpired:sum(packetBytes) 0
scalar RipNetworkA.host4.ipv4.ip packetDropNoInterfaceFound:count 0
scalar RipNetworkA.host4.ipv4.ip packetDropNoInterfaceFound:sum(packetBytes) 0
scalar RipNetworkA.host4.ipv4.ip packetDropNoRouteFound:count 0
scalar RipNetworkA.host4.ipv4.ip packetDropNoRouteFound:sum(packetBytes) 0
scalar RipNetworkA.host4.ipv4.ip packetDropUndefined:count 0
scalar RipNetworkA.host4.ipv4.ip packetDropUndefined:sum(packetBytes) 0
scalar RipNetworkA.host4.udp packetReceived:count 0
scalar RipNetworkA.host4.udp packetReceived:sum(packetBytes) 0
scalar RipNetworkA.host4.udp packetSent:count 0
scalar RipNetworkA.host4.udp packetSent:sum(packetBytes) 0
scalar RipNetworkA.host4.udp passedUpPk:count 0
scalar RipNetworkA.host4.udp droppedPkWrongPort:count 0
scalar RipNetworkA.host4.udp droppedPkBadChecksum:count 0
scalar RipNetworkA.host5.ethernet pauseSent:count 0
scalar RipNetworkA.host5.ethernet pauseSent:sum 0
scalar RipNetworkA.host5.ethernet decapPk:count 100
scalar RipNetworkA.host5.ethernet decapPk:sum(packetBytes) 7840
scalar RipNetworkA.host5.ethernet encapPk:count 0
scalar RipNetworkA.host5.ethernet encapPk:sum(packetBytes) 0
scalar RipNetworkA.host5.lo[0].lo rcvdPkFromHl:count 0
scalar RipNetworkA.host5.lo[0].lo rcvdPkFromHl:sum(packetBytes) 0
scalar RipNetworkA.host5.lo[0].lo passedUpPk:count 0
scalar RipNetworkA.host5.lo[0].lo passedUpPk:sum(packetBytes) 0
scalar RipNetworkA.host5.lo[0] packetDropInterfaceDown:count 0
scalar RipNetworkA.host5.lo[0] packetDropInterfaceDown:sum(packetBytes) 0
scalar RipNetworkA.host5.lo[0] packetDropNoCarrier:count 0
scalar RipNetworkA.host5.lo[0] packetDropNoCarrier:sum(packetBytes) 0
scalar RipNetworkA.host5.eth[0].queue queueLength:last 0
scalar RipNetworkA.host5.eth[0].queue queueLength:max 0
scalar RipNetworkA.host5.eth[0].queue queueLength:timeavg 0
scalar RipNetworkA.host5.eth[0].queue queueBitLength:last 0
scalar RipNetworkA.host5.eth[0].queue queueBitLength:max 0
scalar RipNetworkA.host5.eth[0].queue queueBitLength:timeavg 0
scalar RipNetworkA.host5.eth[0].queue outgoingPackets:count 0
scalar RipNetworkA.host5.eth[0].queue outgoingPacketLengths:sum 0
scalar RipNetworkA.host5.eth[0].queue incomingPackets:count 0
scalar RipNetworkA.host5.eth[0].queue incomingPacketLengths:sum 0
scalar RipNetworkA.host5.eth[0].queue droppedPacketsQueueOverflow:count 0
scalar RipNetworkA.host5.eth[0].queue droppedPacketLengthsQueueOverflow:sum 0
scalar RipNetworkA.host5.eth[0].mac "simulated time" 1000
scalar RipNetworkA.host5.eth[0].mac full-duplex 1
scalar RipNetworkA.host5.eth[0].mac "frames/sec sent" 0
scalar RipNetworkA.host5.eth[0].mac "frames/sec rcvd" 0.10000000000000001
scalar RipNetworkA.host5.eth[0].mac "bits/sec sent" 0
scalar RipNetworkA.host5.eth[0].mac "bits/sec rcvd" 77.120000000000005
scalar RipNetworkA.host5.eth[0].mac "rx channel idle (%)" 99.999916479999996
scalar RipNetworkA.host5.eth[0].mac "rx channel utilization (%)" 8.352e-05
scalar RipNetworkA.host5.eth[0].mac rxPausePkUnits:count 0
scalar RipNetworkA.host5.eth[0].mac rxPausePkUnits:sum 0
scalar RipNetworkA.host5.eth[0].mac txPausePkUnits:count 0
scalar RipNetworkA.host5.eth[0].mac txPausePkUnits:sum 0
scalar RipNetworkA.host5.eth[0].mac rxPkOk:count 100
scalar RipNetworkA.host5.eth[0].mac rxPkOk:sum(packetBytes) 9640
scalar RipNetworkA.host5.eth[0].mac txPk:count 0
scalar RipNetworkA.host5.eth[0].mac txPk:sum(packetBytes) 0
scalar RipNetworkA.host5.eth[0].mac packetReceivedFromUpper:count 0
scalar RipNetworkA.host5.eth[0].mac packetReceivedFromUpper:sum(packetBytes) 0
scalar RipNetworkA.host5.eth[0].mac passedUpPk:count 100
scalar RipNetworkA.host5.eth[0].mac passedUpPk:sum(packetBytes) 9640
scalar RipNetworkA.host5.eth[0].mac packetDropIncorrectlyReceived:count 0
scalar RipNetworkA.host5.eth[0].mac packetDropIncorrectlyReceived:sum(packetBytes) 0
scalar RipNetworkA.host5.eth[0].mac packetDropInterfaceDown:count 0
scalar RipNetworkA.host5.eth[0].mac packetDropInterfaceDown:sum(packetBytes) 0
scalar RipNetworkA.host5.eth[0].mac packetDropNotAddressedToUs:count 0
scalar RipNetworkA.host5.eth[0].mac packetDropNotAddressedToUs:sum(packetBytes) 0
scalar RipNetworkA.host5.eth[0] packetDropInterfaceDown:count 0
scalar RipNetworkA.host5.eth[0] packetDropInterfaceDown:sum(packetBytes) 0
scalar RipNetworkA.host5.eth[0] packetDropNoCarrier:count 0
scalar RipNetworkA.host5.eth[0] packetDropNoCarrier:sum(packetBytes) 0
scalar RipNetworkA.host5.ipv4.ip packetDropAddressResolutionFailed:count 0
scalar RipNetworkA.host5.ipv4.ip packetDropAddressResolutionFailed:sum(packetBytes) 0
scalar RipNetworkA.host5.ipv4.ip packetDropHopLimitReached:count 0
scalar RipNetworkA.host5.ipv4.ip packetDropHopLimitReached:sum(packetBytes) 0
scalar RipNetworkA.host5.ipv4.ip packetDropForwardingDisabled:count 0
scalar RipNetworkA.host5.ipv4.ip packetDropForwardingDisabled:sum(packetBytes) 0
scalar RipNetworkA.host5.ipv4.ip packetDropLifetimeExpired:count 0
scalar RipNetworkA.host5.ipv4.ip packetDropLifetimeExpired:sum(packetBytes) 0
scalar RipNetworkA.host5.ipv4.ip packetDropNoInterfaceFound:count 0
scalar RipNetworkA.host5.ipv4.ip packetDropNoInterfaceFound:sum(packetBytes) 0
scalar RipNetworkA.host5.ipv4.ip packetDropNoRouteFound:count 0
scalar RipNetworkA.host5.ipv4.ip packetDropNoRouteFound:sum(packetBytes) 0
scalar RipNetworkA.host5.ipv4.ip packetDropUndefined:count 0
scalar RipNetworkA.host5.ipv4.ip packetDropUndefined:sum(packetBytes) 0
scalar RipNetworkA.host5.udp packetReceived:count 0
scalar RipNetworkA.host5.udp packetReceived:sum(packetBytes) 0
scalar RipNetworkA.host5.udp packetSent:count 0
scalar RipNetworkA.host5.udp packetSent:sum(packetBytes) 0
scalar RipNetworkA.host5.udp passedUpPk:count 0
scalar RipNetworkA.host5.udp droppedPkWrongPort:count 0
scalar RipNetworkA.host5.udp droppedPkBadChecksum:count 0
scalar RipNetworkA.host6.ethernet pauseSent:count 0
scalar RipNetworkA.host6.ethernet pauseSent:sum 0
scalar RipNetworkA.host6.ethernet decapPk:count 34
scalar RipNetworkA.host6.ethernet decapPk:sum(packetBytes) 4328
scalar RipNetworkA.host6.ethernet encapPk:count 0
scalar RipNetworkA.host6.ethernet encapPk:sum(packetBytes) 0
scalar RipNetworkA.host6.lo[0].lo rcvdPkFromHl:count 0
scalar RipNetworkA.host6.lo[0].lo rcvdPkFromHl:sum(packetBytes) 0
scalar RipNetworkA.host6.lo[0].lo passedUpPk:count 0
scalar RipNetworkA.host6.lo[0].lo passedUpPk:sum(packetBytes) 0
scalar RipNetworkA.host6.lo[0] packetDropInterfaceDown:count 0
scalar RipNetworkA.host6.lo[0] packetDropInterfaceDown:sum(packetBytes) 0
scalar RipNetworkA.host6.lo[0] packetDropNoCarrier:count 0
scalar RipNetworkA.host6.lo[0] packetDropNoCarrier:sum(packetBytes) 0
scalar RipNetworkA.host6.eth[0].queue queueLength:last 0
scalar RipNetworkA.host6.eth[0].queue queueLength:max 0
scalar RipNetworkA.host6.eth[0].queue queueLength:timeavg 0
scalar RipNetworkA.host6.eth[0].queue queueBitLength:last 0
scalar RipNetworkA.host6.eth[0].queue queueBitLength:max 0
scalar RipNetworkA.host6.eth[0].queue queueBitLength:timeavg 0
scalar RipNetworkA.host6.eth[0].queue outgoingPackets:count 0
scalar RipNetworkA.host6.eth[0].queue outgoingPacketLengths:sum 0
scalar RipNetworkA.host6.eth[0].queue incomingPackets:count 0
scalar RipNetworkA.host6.eth[0].queue incomingPacketLengths:sum 0
scalar RipNetworkA.host6.eth[0].queue droppedPacketsQueueOverflow:count 0
scalar RipNetworkA.host6.eth[0].queue droppedPacketLengthsQueueOverflow:sum 0
scalar RipNetworkA.host6.eth[0].mac "simulated time" 1000
scalar RipNetworkA.host6.eth[0].mac full-duplex 1
scalar RipNetworkA.host6.eth[0].mac "frames/sec sent" 0
scalar RipNetworkA.host6.eth[0].mac "frames/sec rcvd" 0.034000000000000002
scalar RipNetworkA.host6.eth[0].mac "bits/sec sent" 0
scalar RipNetworkA.host6.eth[0].mac "bits/sec rcvd" 39.520000000000003
scalar RipNetworkA.host6.eth[0].mac "rx channel idle (%)" 99.999958304000003
scalar RipNetworkA.host6.eth[0].mac "rx channel utilization (%)" 4.1696000000000002e-05
scalar RipNetworkA.host6.eth[0].mac rxPausePkUnits:count 0
scalar RipNetworkA.host6.eth[0].mac rxPausePkUnits:sum 0
scalar RipNetworkA.host6.eth[0].mac txPausePkUnits:count 0
scalar RipNetworkA.host6.eth[0].mac txPausePkUnits:sum 0
scalar RipNetworkA.host6.eth[0].mac rxPkOk:count 34
scalar RipNetworkA.host6.eth[0].mac rxPkOk:sum(packetBytes) 4940
scalar RipNetworkA.host6.eth[0].mac txPk:count 0
scalar RipNetworkA.host6.eth[0].mac txPk:sum(packetBytes) 0
scalar RipNetworkA.host6.eth[0].mac packetReceivedFromUpper:count 0
scalar RipNetworkA.host6.eth[0].mac packetReceivedFromUpper:sum(packetBytes) 0
scalar RipNetworkA.host6.eth[0].mac passedUpPk:count 34
scalar RipNetworkA.host6.eth[0].mac passedUpPk:sum(packetBytes) 4940
scalar RipNetworkA.host6.eth[0].mac packetDropIncorrectlyReceived:count 0
scalar RipNetworkA.host6.eth[0].mac packetDropIncorrectlyReceived:sum(packetBytes) 0
scalar RipNetworkA.host6.eth[0].mac packetDropInterfaceDown:count 0
scalar RipNetworkA.host6.eth[0].mac packetDropInterfaceDown:sum(packetBytes) 0
scalar RipNetworkA.host6.eth[0].mac packetDropNotAddressedToUs:count 0
scalar RipNetworkA.host6.eth[0].mac packetDropNotAddressedToUs:sum(packetBytes) 0
scalar RipNetworkA.host6.eth[0] packetDropInterfaceDown:count 0
scalar RipNetworkA.host6.eth[0] packetDropInterfaceDown:sum(packetBytes) 0
scalar RipNetworkA.host6.eth[0] packetDropNoCarrier:count 0
scalar RipNetworkA.host6.eth[0] packetDropNoCarrier:sum(packetBytes) 0
scalar RipNetworkA.host6.ipv4.ip packetDropAddressResolutionFailed:count 0
scalar RipNetworkA.host6.ipv4.ip packetDropAddressResolutionFailed:sum(packetBytes) 0
scalar RipNetworkA.host6.ipv4.ip packetDropHopLimitReached:count 0
scalar RipNetworkA.host6.ipv4.ip packetDropHopLimitReached:sum(packetBytes) 0
scalar RipNetworkA.host6.ipv4.ip packetDropForwardingDisabled:count 0
scalar RipNetworkA.host6.ipv4.ip packetDropForwardingDisabled:sum(packetBytes) 0
scalar RipNetworkA.host6.ipv4.ip packetDropLifetimeExpired:count 0
scalar RipNetworkA.host6.ipv4.ip packetDropLifetimeExpired:sum(packetBytes) 0
scalar RipNetworkA.host6.ipv4.ip packetDropNoInterfaceFound:count 0
scalar RipNetworkA.host6.ipv4.ip packetDropNoInterfaceFound:sum(packetBytes) 0
scalar RipNetworkA.host6.ipv4.ip packetDropNoRouteFound:count 0
scalar RipNetworkA.host6.ipv4.ip packetDropNoRouteFound:sum(packetBytes) 0
scalar RipNetworkA.host6.ipv4.ip packetDropUndefined:count 0
scalar RipNetworkA.host6.ipv4.ip packetDropUndefined:sum(packetBytes) 0
scalar RipNetworkA.host6.udp packetReceived:count 0
scalar RipNetworkA.host6.udp packetReceived:sum(packetBytes) 0
scalar RipNetworkA.host6.udp packetSent:count 0
scalar RipNetworkA.host6.udp packetSent:sum(packetBytes) 0
scalar RipNetworkA.host6.udp passedUpPk:count 0
scalar RipNetworkA.host6.udp droppedPkWrongPort:count 0
scalar RipNetworkA.host6.udp droppedPkBadChecksum:count 0
scalar RipNetworkA.host7.ethernet pauseSent:count 0
scalar RipNetworkA.host7.ethernet pauseSent:sum 0
scalar RipNetworkA.host7.ethernet decapPk:count 34
scalar RipNetworkA.host7.ethernet decapPk:sum(packetBytes) 4328
scalar RipNetworkA.host7.ethernet encapPk:count 0
scalar RipNetworkA.host7.ethernet encapPk:sum(packetBytes) 0
scalar RipNetworkA.host7.lo[0].lo rcvdPkFromHl:count 0
scalar RipNetworkA.host7.lo[0].lo rcvdPkFromHl:sum(packetBytes) 0
scalar RipNetworkA.host7.lo[0].lo passedUpPk:count 0
scalar RipNetworkA.host7.lo[0].lo passedUpPk:sum(packetBytes) 0
scalar RipNetworkA.host7.lo[0] packetDropInterfaceDown:count 0
scalar RipNetworkA.host7.lo[0] packetDropInterfaceDown:sum(packetBytes) 0
scalar RipNetworkA.host7.lo[0] packetDropNoCarrier:count 0
scalar RipNetworkA.host7.lo[0] packetDropNoCarrier:sum(packetBytes) 0
scalar RipNetworkA.host7.eth[0].queue queueLength:last 0
scalar RipNetworkA.host7.eth[0].queue queueLength:max 0
scalar RipNetworkA.host7.eth[0].queue queueLength:timeavg 0
scalar RipNetworkA.host7.eth[0].queue queueBitLength:last 0
scalar RipNetworkA.host7.eth[0].queue queueBitLength:max 0
scalar RipNetworkA.host7.eth[0].queue queueBitLength:timeavg 0
scalar RipNetworkA.host7.eth[0].queue outgoingPackets:count 0
scalar RipNetworkA.host7.eth[0].queue outgoingPacketLengths:sum 0
scalar RipNetworkA.host7.eth[0].queue incomingPackets:count 0
scalar RipNetworkA.host7.eth[0].queue incomingPacketLengths:sum 0
scalar RipNetworkA.host7.eth[0].queue droppedPacketsQueueOverflow:count 0
scalar RipNetworkA.host7.eth[0].queue droppedPacketLengthsQueueOverflow:sum 0
scalar RipNetworkA.host7.eth[0].mac "simulated time" 1000
scalar RipNetworkA.host7.eth[0].mac full-duplex 1
scalar RipNetworkA.host7.eth[0].mac "frames/sec sent" 0
scalar RipNetworkA.host7.eth[0].mac "frames/sec rcvd" 0.034000000000000002
scalar RipNetworkA.host7.eth[0].mac "bits/sec sent" 0
scalar RipNetworkA.host7.eth[0].mac "bits/sec rcvd" 39.520000000000003
scalar RipNetworkA.host7.eth[0].mac "rx channel idle (%)" 99.999958304000003
scalar RipNetworkA.host7.eth[0].mac "rx channel utilization (%)" 4.1696000000000002e-05
scalar RipNetworkA.host7.eth[0].mac rxPausePkUnits:count 0
scalar RipNetworkA.host7.eth[0].mac rxPausePkUnits:sum 0
scalar RipNetworkA.host7.eth[0].mac txPausePkUnits:count 0
scalar RipNetworkA.host7.eth[0].mac txPausePkUnits:sum 0
scalar RipNetworkA.host7.eth[0].mac rxPkOk:count 34
scalar RipNetworkA.host7.eth[0].mac rxPkOk:sum(packetBytes) 4940
scalar RipNetworkA.host7.eth[0].mac txPk:count 0
scalar RipNetworkA.host7.eth[0].mac txPk:sum(packetBytes) 0
scalar RipNetworkA.host7.eth[0].mac packetReceivedFromUpper:count 0
scalar RipNetworkA.host7.eth[0].mac packetReceivedFromUpper:sum(packetBytes) 0
scalar RipNetworkA.host7.eth[0].mac passedUpPk:count 34
scalar RipNetworkA.host7.eth[0].mac passedUpPk:sum(packetBytes) 4940
scalar RipNetworkA.host7.eth[0].mac packetDropIncorrectlyReceived:count 0
scalar RipNetworkA.host7.eth[0].mac packetDropIncorrectlyReceived:sum(packetBytes) 0
scalar RipNetworkA.host7.eth[0].mac packetDropInterfaceDown:count 0
scalar RipNetworkA.host7.eth[0].mac packetDropInterfaceDown:sum(packetBytes) 0
scalar RipNetworkA.host7.eth[0].mac packetDropNotAddressedToUs:count 0
scalar RipNetworkA.host7.eth[0].mac packetDropNotAddressedToUs:sum(packetBytes) 0
scalar RipNetworkA.host7.eth[0] packetDropInterfaceDown:count 0
scalar RipNetworkA.host7.eth[0] packetDropInterfaceDown:sum(packetBytes) 0
scalar RipNetworkA.host7.eth[0] packetDropNoCarrier:count 0
scalar RipNetworkA.host7.eth[0] packetDropNoCarrier:sum(packetBytes) 0
scalar RipNetworkA.host7.ipv4.ip packetDropAddressResolutionFailed:count 0
scalar RipNetworkA.host7.ipv4.ip packetDropAddressResolutionFailed:sum(packetBytes) 0
scalar RipNetworkA.host7.ipv4.ip packetDropHopLimitReached:count 0
scalar RipNetworkA.host7.ipv4.ip packetDropHopLimitReached:sum(packetBytes) 0
scalar RipNetworkA.host7.ipv4.ip packetDropForwardingDisabled:count 0
scalar RipNetworkA.host7.ipv4.ip packetDropForwardingDisabled:sum(packetBytes) 0
scalar RipNetworkA.host7.ipv4.ip packetDropLifetimeExpired:count 0
scalar RipNetworkA.host7.ipv4.ip packetDropLifetimeExpired:sum(packetBytes) 0
scalar RipNetworkA.host7.ipv4.ip packetDropNoInterfaceFound:count 0
scalar RipNetworkA.host7.ipv4.ip packetDropNoInterfaceFound:sum(packetBytes) 0
scalar RipNetworkA.host7.ipv4.ip packetDropNoRouteFound:count 0
scalar RipNetworkA.host7.ipv4.ip packetDropNoRouteFound:sum(packetBytes) 0
scalar RipNetworkA.host7.ipv4.ip packetDropUndefined:count 0
scalar RipNetworkA.host7.ipv4.ip packetDropUndefined:sum(packetBytes) 0
scalar RipNetworkA.host7.udp packetReceived:count 0
scalar RipNetworkA.host7.udp packetReceived:sum(packetBytes) 0
scalar RipNetworkA.host7.udp packetSent:count 0
scalar RipNetworkA.host7.udp packetSent:sum(packetBytes) 0
scalar RipNetworkA.host7.udp passedUpPk:count 0
scalar RipNetworkA.host7.udp droppedPkWrongPort:count 0
scalar RipNetworkA.host7.udp droppedPkBadChecksum:count 0
scalar RipNetworkA.host8.ethernet pauseSent:count 0
scalar RipNetworkA.host8.ethernet pauseSent:sum 0
scalar RipNetworkA.host8.ethernet decapPk:count 34
scalar RipNetworkA.host8.ethernet decapPk:sum(packetBytes) 4328
scalar RipNetworkA.host8.ethernet encapPk:count 0
scalar RipNetworkA.host8.ethernet encapPk:sum(packetBytes) 0
scalar RipNetworkA.host8.lo[0].lo rcvdPkFromHl:count 0
scalar RipNetworkA.host8.lo[0].lo rcvdPkFromHl:sum(packetBytes) 0
scalar RipNetworkA.host8.lo[0].lo passedUpPk:count 0
scalar RipNetworkA.host8.lo[0].lo passedUpPk:sum(packetBytes) 0
scalar RipNetworkA.host8.lo[0] packetDropInterfaceDown:count 0
scalar RipNetworkA.host8.lo[0] packetDropInterfaceDown:sum(packetBytes) 0
scalar RipNetworkA.host8.lo[0] packetDropNoCarrier:count 0
scalar RipNetworkA.host8.lo[0] packetDropNoCarrier:sum(packetBytes) 0
scalar RipNetworkA.host8.eth[0].queue queueLength:last 0
scalar RipNetworkA.host8.eth[0].queue queueLength:max 0
scalar RipNetworkA.host8.eth[0].queue queueLength:timeavg 0
scalar RipNetworkA.host8.eth[0].queue queueBitLength:last 0
scalar RipNetworkA.host8.eth[0].queue queueBitLength:max 0
scalar RipNetworkA.host8.eth[0].queue queueBitLength:timeavg 0
scalar RipNetworkA.host8.eth[0].queue outgoingPackets:count 0
scalar RipNetworkA.host8.eth[0].queue outgoingPacketLengths:sum 0
scalar RipNetworkA.host8.eth[0].queue incomingPackets:count 0
scalar RipNetworkA.host8.eth[0].queue incomingPacketLengths:sum 0
scalar RipNetworkA.host8.eth[0].queue droppedPacketsQueueOverflow:count 0
scalar RipNetworkA.host8.eth[0].queue droppedPacketLengthsQueueOverflow:sum 0
scalar RipNetworkA.host8.eth[0].mac "simulated time" 1000
scalar RipNetworkA.host8.eth[0].mac full-duplex 1
scalar RipNetworkA.host8.eth[0].mac "frames/sec sent" 0
scalar RipNetworkA.host8.eth[0].mac "frames/sec rcvd" 0.034000000000000002
scalar RipNetworkA.host8.eth[0].mac "bits/sec sent" 0
scalar RipNetworkA.host8.eth[0].mac "bits/sec rcvd" 39.520000000000003
scalar RipNetworkA.host8.eth[0].mac "rx channel idle (%)" 99.999958304000003
scalar RipNetworkA.host8.eth[0].mac "rx channel utilization (%)" 4.1696000000000002e-05
scalar RipNetworkA.host8.eth[0].mac rxPausePkUnits:count 0
scalar RipNetworkA.host8.eth[0].mac rxPausePkUnits:sum 0
scalar RipNetworkA.host8.eth[0].mac txPausePkUnits:count 0
scalar RipNetworkA.host8.eth[0].mac txPausePkUnits:sum 0
scalar RipNetworkA.host8.eth[0].mac rxPkOk:count 34
scalar RipNetworkA.host8.eth[0].mac rxPkOk:sum(packetBytes) 4940
scalar RipNetworkA.host8.eth[0].mac txPk:count 0
scalar RipNetworkA.host8.eth[0].mac txPk:sum(packetBytes) 0
scalar RipNetworkA.host8.eth[0].mac packetReceivedFromUpper:count 0
scalar RipNetworkA.host8.eth[0].mac packetReceivedFromUpper:sum(packetBytes) 0
scalar RipNetworkA.host8.eth[0].mac passedUpPk:count 34
scalar RipNetworkA.host8.eth[0].mac passedUpPk:sum(packetBytes) 4940
scalar RipNetworkA.host8.eth[0].mac packetDropIncorrectlyReceived:count 0
scalar RipNetworkA.host8.eth[0].mac packetDropIncorrectlyReceived:sum(packetBytes) 0
scalar RipNetworkA.host8.eth[0].mac packetDropInterfaceDown:count 0
scalar RipNetworkA.host8.eth[0].mac packetDropInterfaceDown:sum(packetBytes) 0
scalar RipNetworkA.host8.eth[0].mac packetDropNotAddressedToUs:count 0
scalar RipNetworkA.host8.eth[0].mac packetDropNotAddressedToUs:sum(packetBytes) 0
scalar RipNetworkA.host8.eth[0] packetDropInterfaceDown:count 0
scalar RipNetworkA.host8.eth[0] packetDropInterfaceDown:sum(packetBytes) 0
scalar RipNetworkA.host8.eth[0] packetDropNoCarrier:count 0
scalar RipNetworkA.host8.eth[0] packetDropNoCarrier:sum(packetBytes) 0
scalar RipNetworkA.host8.ipv4.ip packetDropAddressResolutionFailed:count 0
scalar RipNetworkA.host8.ipv4.ip packetDropAddressResolutionFailed:sum(packetBytes) 0
scalar RipNetworkA.host8.ipv4.ip packetDropHopLimitReached:count 0
scalar RipNetworkA.host8.ipv4.ip packetDropHopLimitReached:sum(packetBytes) 0
scalar RipNetworkA.host8.ipv4.ip packetDropForwardingDisabled:count 0
scalar RipNetworkA.host8.ipv4.ip packetDropForwardingDisabled:sum(packetBytes) 0
scalar RipNetworkA.host8.ipv4.ip packetDropLifetimeExpired:count 0
scalar RipNetworkA.host8.ipv4.ip packetDropLifetimeExpired:sum(packetBytes) 0
scalar RipNetworkA.host8.ipv4.ip packetDropNoInterfaceFound:count 0
scalar RipNetworkA.host8.ipv4.ip packetDropNoInterfaceFound:sum(packetBytes) 0
scalar RipNetworkA.host8.ipv4.ip packetDropNoRouteFound:count 0
scalar RipNetworkA.host8.ipv4.ip packetDropNoRouteFound:sum(packetBytes) 0
scalar RipNetworkA.host8.ipv4.ip packetDropUndefined:count 0
scalar RipNetworkA.host8.ipv4.ip packetDropUndefined:sum(packetBytes) 0
scalar RipNetworkA.host8.udp packetReceived:count 0
scalar RipNetworkA.host8.udp packetReceived:sum(packetBytes) 0
scalar RipNetworkA.host8.udp packetSent:count 0
scalar RipNetworkA.host8.udp packetSent:sum(packetBytes) 0
scalar RipNetworkA.host8.udp passedUpPk:count 0
scalar RipNetworkA.host8.udp droppedPkWrongPort:count 0
scalar RipNetworkA.host8.udp droppedPkBadChecksum:count 0
scalar RipNetworkA.switch0.bridging "processed frames" 0
scalar RipNetworkA.switch0.bridging "discarded frames" 0
scalar RipNetworkA.switch0.bridging "number of received BPDUs from STP module" 0
scalar RipNetworkA.switch0.bridging "number of received frames from network (including BPDUs)" 34
scalar RipNetworkA.switch0.bridging "number of dropped frames (including BPDUs)" 0
scalar RipNetworkA.switch0.bridging "number of delivered BPDUs to the STP module" 0
scalar RipNetworkA.switch0.bridging "number of dispatched BPDU frames to the network" 0
scalar RipNetworkA.switch0.bridging "number of dispatched non-BDPU frames to the network" 0
scalar RipNetworkA.switch0.bridging packetDropped:count 0
scalar RipNetworkA.switch0.bridging packetDropped:sum(packetBytes) 0
scalar RipNetworkA.switch0.ethernet pauseSent:count 0
scalar RipNetworkA.switch0.ethernet pauseSent:sum 0
scalar RipNetworkA.switch0.ethernet decapPk:count 34
scalar RipNetworkA.switch0.ethernet decapPk:sum(packetBytes) 4348
scalar RipNetworkA.switch0.ethernet encapPk:count 102
scalar RipNetworkA.switch0.ethernet encapPk:sum(packetBytes) 13044
scalar RipNetworkA.switch0.eth[0].queue queueLength:last 0
scalar RipNetworkA.switch0.eth[0].queue queueLength:max 0
scalar RipNetworkA.switch0.eth[0].queue queueLength:timeavg 0
scalar RipNetworkA.switch0.eth[0].queue queueBitLength:last 0
scalar RipNetworkA.switch0.eth[0].queue queueBitLength:max 0
scalar RipNetworkA.switch0.eth[0].queue queueBitLength:timeavg 0
scalar RipNetworkA.switch0.eth[0].queue outgoingPackets:count 34
scalar RipNetworkA.switch0.eth[0].queue outgoingPacketLengths:sum 39680
scalar RipNetworkA.switch0.eth[0].queue incomingPackets:count 34
scalar RipNetworkA.switch0.eth[0].queue incomingPacketLengths:sum 39680
scalar RipNetworkA.switch0.eth[0].queue droppedPacketsQueueOverflow:count 0
scalar RipNetworkA.switch0.eth[0].queue droppedPacketLengthsQueueOverflow:sum 0
scalar RipNetworkA.switch0.eth[0].mac "simulated time" 1000
scalar RipNetworkA.switch0.eth[0].mac full-duplex 1
scalar RipNetworkA.switch0.eth[0].mac "frames/sec sent" 0.034000000000000002
scalar RipNetworkA.switch0.eth[0].mac "frames/sec rcvd" 0
scalar RipNetworkA.switch0.eth[0].mac "bits/sec sent" 39.68
scalar RipNetworkA.switch0.eth[0].mac "bits/sec rcvd" 0
scalar RipNetworkA.switch0.eth[0].mac "rx channel idle (%)" 100
scalar RipNetworkA.switch0.eth[0].mac "rx channel utilization (%)" 0
scalar RipNetworkA.switch0.eth[0].mac rxPausePkUnits:count 0
scalar RipNetworkA.switch0.eth[0].mac rxPausePkUnits:sum 0
scalar RipNetworkA.switch0.eth[0].mac txPausePkUnits:count 0
scalar RipNetworkA.switch0.eth[0].mac txPausePkUnits:sum 0
scalar RipNetworkA.switch0.eth[0].mac rxPkOk:count 0
scalar RipNetworkA.switch0.eth[0].mac rxPkOk:sum(packetBytes) 0
scalar RipNetworkA.switch0.eth[0].mac txPk:count 34
scalar RipNetworkA.switch0.eth[0].mac txPk:sum(packetBytes) 4960
scalar RipNetworkA.switch0.eth[0].mac packetReceivedFromUpper:count 34
scalar RipNetworkA.switch0.eth[0].mac packetReceivedFromUpper:sum(packetBytes) 4960
scalar RipNetworkA.switch0.eth[0].mac passedUpPk:count 0
scalar RipNetworkA.switch0.eth[0].mac passedUpPk:sum(packetBytes) 0
scalar RipNetworkA.switch0.eth[0].mac packetDropIncorrectlyReceived:count 0
scalar RipNetworkA.switch0.eth[0].mac packetDropIncorrectlyReceived:sum(packetBytes) 0
scalar RipNetworkA.switch0.eth[0].mac packetDropInterfaceDown:count 0
scalar RipNetworkA.switch0.eth[0].mac packetDropInterfaceDown:sum(packetBytes) 0
scalar RipNetworkA.switch0.eth[0].mac packetDropNotAddressedToUs:count 0
scalar RipNetworkA.switch0.eth[0].mac packetDropNotAddressedToUs:sum(packetBytes) 0
scalar RipNetworkA.switch0.eth[0] packetDropInterfaceDown:count 0
scalar RipNetworkA.switch0.eth[0] packetDropInterfaceDown:sum(packetBytes) 0
scalar RipNetworkA.switch0.eth[0] packetDropNoCarrier:count 0
scalar RipNetworkA.switch0.eth[0] packetDropNoCarrier:sum(packetBytes) 0
scalar RipNetworkA.switch0.eth[1].queue queueLength:last 0
scalar RipNetworkA.switch0.eth[1].queue queueLength:max 0
scalar RipNetworkA.switch0.eth[1].queue queueLength:timeavg 0
scalar RipNetworkA.switch0.eth[1].queue queueBitLength:last 0
scalar RipNetworkA.switch0.eth[1].queue queueBitLength:max 0
scalar RipNetworkA.switch0.eth[1].queue queueBitLength:timeavg 0
scalar RipNetworkA.switch0.eth[1].queue outgoingPackets:count 34
scalar RipNetworkA.switch0.eth[1].queue outgoingPacketLengths:sum 39680
scalar RipNetworkA.switch0.eth[1].queue incomingPackets:count 34
scalar RipNetworkA.switch0.eth[1].queue incomingPacketLengths:sum 39680
scalar RipNetworkA.switch0.eth[1].queue droppedPacketsQueueOverflow:count 0
[...]
scalar RipNetworkA.router4.eth[1].mac passedUpPk:vector(packetBytes):sum 3700
scalar RipNetworkA.router4.eth[1].mac passedUpPk:vector(packetBytes):sumweights 34
scalar RipNetworkA.router4.eth[1].mac passedUpPk:vector(packetBytes):mean 108.82352941176471
scalar RipNetworkA.router4.eth[1].mac passedUpPk:vector(packetBytes):stddev 6.8599434057003839
scalar RipNetworkA.router4.eth[1].mac passedUpPk:vector(packetBytes):min 70
scalar RipNetworkA.router4.eth[1].mac passedUpPk:vector(packetBytes):max 110
scalar RipNetworkA.router4.eth[1].mac passedUpPk:vector(packetBytes):starttime 0.84427203409000018
scalar RipNetworkA.router4.eth[1].mac passedUpPk:vector(packetBytes):endtime 990.84427523409022
scalar RipNetworkA.router4.eth[1].mac txPausePkUnits:vector:count 0
scalar RipNetworkA.router4.eth[1].mac txPausePkUnits:vector:sum 0
scalar RipNetworkA.router4.eth[1].mac txPausePkUnits:vector:sumweights 0
scalar RipNetworkA.router4.eth[1].mac txPausePkUnits:vector:mean -nan
scalar RipNetworkA.router4.eth[1].mac txPausePkUnits:vector:stddev nan
scalar RipNetworkA.router4.eth[1].mac txPausePkUnits:vector:min inf
scalar RipNetworkA.router4.eth[1].mac txPausePkUnits:vector:max -inf
scalar RipNetworkA.router4.eth[1].mac txPausePkUnits:vector:starttime nan
scalar RipNetworkA.router4.eth[1].mac txPausePkUnits:vector:endtime nan
scalar RipNetworkA.router4.eth[1].mac rxPausePkUnits:vector:count 0
scalar RipNetworkA.router4.eth[1].mac rxPausePkUnits:vector:sum 0
scalar RipNetworkA.router4.eth[1].mac rxPausePkUnits:vector:sumweights 0
scalar RipNetworkA.router4.eth[1].mac rxPausePkUnits:vector:mean -nan
scalar RipNetworkA.router4.eth[1].mac rxPausePkUnits:vector:stddev nan
scalar RipNetworkA.router4.eth[1].mac rxPausePkUnits:vector:min inf
scalar RipNetworkA.router4.eth[1].mac rxPausePkUnits:vector:max -inf
scalar RipNetworkA.router4.eth[1].mac rxPausePkUnits:vector:starttime nan
scalar RipNetworkA.router4.eth[1].mac rxPausePkUnits:vector:endtime nan
scalar RipNetworkA.router4.eth[1].mac packetReceivedFromUpper:vector(packetBytes):count 35
scalar RipNetworkA.router4.eth[1].mac packetReceivedFromUpper:vector(packetBytes):sum 3810
scalar RipNetworkA.router4.eth[1].mac packetReceivedFromUpper:vector(packetBytes):sumweights 35
scalar RipNetworkA.router4.eth[1].mac packetReceivedFromUpper:vector(packetBytes):mean 108.85714285714286
scalar RipNetworkA.router4.eth[1].mac packetReceivedFromUpper:vector(packetBytes):stddev 6.7612340378281868
scalar RipNetworkA.router4.eth[1].mac packetReceivedFromUpper:vector(packetBytes):min 70
scalar RipNetworkA.router4.eth[1].mac packetReceivedFromUpper:vector(packetBytes):max 110
scalar RipNetworkA.router4.eth[1].mac packetReceivedFromUpper:vector(packetBytes):starttime 0.6027633703780001
scalar RipNetworkA.router4.eth[1].mac packetReceivedFromUpper:vector(packetBytes):endtime 990.60276337037817
scalar RipNetworkA.router4.eth[1].mac packetDropIncorrectlyReceived:vector(packetBytes):count 0
scalar RipNetworkA.router4.eth[1].mac packetDropIncorrectlyReceived:vector(packetBytes):sum 0
scalar RipNetworkA.router4.eth[1].mac packetDropIncorrectlyReceived:vector(packetBytes):sumweights 0
scalar RipNetworkA.router4.eth[1].mac packetDropIncorrectlyReceived:vector(packetBytes):mean -nan
scalar RipNetworkA.router4.eth[1].mac packetDropIncorrectlyReceived:vector(packetBytes):stddev nan
scalar RipNetworkA.router4.eth[1].mac packetDropIncorrectlyReceived:vector(packetBytes):min inf
scalar RipNetworkA.router4.eth[1].mac packetDropIncorrectlyReceived:vector(packetBytes):max -inf
scalar RipNetworkA.router4.eth[1].mac packetDropIncorrectlyReceived:vector(packetBytes):starttime nan
scalar RipNetworkA.router4.eth[1].mac packetDropIncorrectlyReceived:vector(packetBytes):endtime nan
scalar RipNetworkA.router4.eth[1].mac packetDropInterfaceDown:vector(packetBytes):count 0
scalar RipNetworkA.router4.eth[1].mac packetDropInterfaceDown:vector(packetBytes):sum 0
scalar RipNetworkA.router4.eth[1].mac packetDropInterfaceDown:vector(packetBytes):sumweights 0
scalar RipNetworkA.router4.eth[1].mac packetDropInterfaceDown:vector(packetBytes):mean -nan
scalar RipNetworkA.router4.eth[1].mac packetDropInterfaceDown:vector(packetBytes):stddev nan
scalar RipNetworkA.router4.eth[1].mac packetDropInterfaceDown:vector(packetBytes):min inf
scalar RipNetworkA.router4.eth[1].mac packetDropInterfaceDown:vector(packetBytes):max -inf
scalar RipNetworkA.router4.eth[1].mac packetDropInterfaceDown:vector(packetBytes):starttime nan
scalar RipNetworkA.router4.eth[1].mac packetDropInterfaceDown:vector(packetBytes):endtime nan
scalar RipNetworkA.router4.eth[1].mac packetDropNotAddressedToUs:vector(packetBytes):count 0
scalar RipNetworkA.router4.eth[1].mac packetDropNotAddressedToUs:vector(packetBytes):sum 0
scalar RipNetworkA.router4.eth[1].mac packetDropNotAddressedToUs:vector(packetBytes):sumweights 0
scalar RipNetworkA.router4.eth[1].mac packetDropNotAddressedToUs:vector(packetBytes):mean -nan
scalar RipNetworkA.router4.eth[1].mac packetDropNotAddressedToUs:vector(packetBytes):stddev nan
scalar RipNetworkA.router4.eth[1].mac packetDropNotAddressedToUs:vector(packetBytes):min inf
scalar RipNetworkA.router4.eth[1].mac packetDropNotAddressedToUs:vector(packetBytes):max -inf
scalar RipNetworkA.router4.eth[1].mac packetDropNotAddressedToUs:vector(packetBytes):starttime nan
scalar RipNetworkA.router4.eth[1].mac packetDropNotAddressedToUs:vector(packetBytes):endtime nan
scalar RipNetworkA.router4.eth[1] packetDropInterfaceDown:vector(packetBytes):count 0
scalar RipNetworkA.router4.eth[1] packetDropInterfaceDown:vector(packetBytes):sum 0
scalar RipNetworkA.router4.eth[1] packetDropInterfaceDown:vector(packetBytes):sumweights 0
scalar RipNetworkA.router4.eth[1] packetDropInterfaceDown:vector(packetBytes):mean -nan
scalar RipNetworkA.router4.eth[1] packetDropInterfaceDown:vector(packetBytes):stddev nan
scalar RipNetworkA.router4.eth[1] packetDropInterfaceDown:vector(packetBytes):min inf
scalar RipNetworkA.router4.eth[1] packetDropInterfaceDown:vector(packetBytes):max -inf
scalar RipNetworkA.router4.eth[1] packetDropInterfaceDown:vector(packetBytes):starttime nan
scalar RipNetworkA.router4.eth[1] packetDropInterfaceDown:vector(packetBytes):endtime nan
scalar RipNetworkA.router4.eth[1] packetDropNoCarrier:vector(packetBytes):count 0
scalar RipNetworkA.router4.eth[1] packetDropNoCarrier:vector(packetBytes):sum 0
scalar RipNetworkA.router4.eth[1] packetDropNoCarrier:vector(packetBytes):sumweights 0
scalar RipNetworkA.router4.eth[1] packetDropNoCarrier:vector(packetBytes):mean -nan
scalar RipNetworkA.router4.eth[1] packetDropNoCarrier:vector(packetBytes):stddev nan
scalar RipNetworkA.router4.eth[1] packetDropNoCarrier:vector(packetBytes):min inf
scalar RipNetworkA.router4.eth[1] packetDropNoCarrier:vector(packetBytes):max -inf
scalar RipNetworkA.router4.eth[1] packetDropNoCarrier:vector(packetBytes):starttime nan
scalar RipNetworkA.router4.eth[1] packetDropNoCarrier:vector(packetBytes):endtime nan
scalar RipNetworkA.router4.ipv4.ip packetDropAddressResolutionFailed:vector(packetBytes):count 0
scalar RipNetworkA.router4.ipv4.ip packetDropAddressResolutionFailed:vector(packetBytes):sum 0
scalar RipNetworkA.router4.ipv4.ip packetDropAddressResolutionFailed:vector(packetBytes):sumweights 0
scalar RipNetworkA.router4.ipv4.ip packetDropAddressResolutionFailed:vector(packetBytes):mean -nan
scalar RipNetworkA.router4.ipv4.ip packetDropAddressResolutionFailed:vector(packetBytes):stddev nan
scalar RipNetworkA.router4.ipv4.ip packetDropAddressResolutionFailed:vector(packetBytes):min inf
scalar RipNetworkA.router4.ipv4.ip packetDropAddressResolutionFailed:vector(packetBytes):max -inf
scalar RipNetworkA.router4.ipv4.ip packetDropAddressResolutionFailed:vector(packetBytes):starttime nan
scalar RipNetworkA.router4.ipv4.ip packetDropAddressResolutionFailed:vector(packetBytes):endtime nan
scalar RipNetworkA.router4.ipv4.ip packetDropHopLimitReached:vector(packetBytes):count 0
scalar RipNetworkA.router4.ipv4.ip packetDropHopLimitReached:vector(packetBytes):sum 0
scalar RipNetworkA.router4.ipv4.ip packetDropHopLimitReached:vector(packetBytes):sumweights 0
scalar RipNetworkA.router4.ipv4.ip packetDropHopLimitReached:vector(packetBytes):mean -nan
scalar RipNetworkA.router4.ipv4.ip packetDropHopLimitReached:vector(packetBytes):stddev nan
scalar RipNetworkA.router4.ipv4.ip packetDropHopLimitReached:vector(packetBytes):min inf
scalar RipNetworkA.router4.ipv4.ip packetDropHopLimitReached:vector(packetBytes):max -inf
scalar RipNetworkA.router4.ipv4.ip packetDropHopLimitReached:vector(packetBytes):starttime nan
scalar RipNetworkA.router4.ipv4.ip packetDropHopLimitReached:vector(packetBytes):endtime nan
scalar RipNetworkA.router4.ipv4.ip packetDropForwardingDisabled:vector(packetBytes):count 0
scalar RipNetworkA.router4.ipv4.ip packetDropForwardingDisabled:vector(packetBytes):sum 0
scalar RipNetworkA.router4.ipv4.ip packetDropForwardingDisabled:vector(packetBytes):sumweights 0
scalar RipNetworkA.router4.ipv4.ip packetDropForwardingDisabled:vector(packetBytes):mean -nan
scalar RipNetworkA.router4.ipv4.ip packetDropForwardingDisabled:vector(packetBytes):stddev nan
scalar RipNetworkA.router4.ipv4.ip packetDropForwardingDisabled:vector(packetBytes):min inf
scalar RipNetworkA.router4.ipv4.ip packetDropForwardingDisabled:vector(packetBytes):max -inf
scalar RipNetworkA.router4.ipv4.ip packetDropForwardingDisabled:vector(packetBytes):starttime nan
scalar RipNetworkA.router4.ipv4.ip packetDropForwardingDisabled:vector(packetBytes):endtime nan
scalar RipNetworkA.router4.ipv4.ip packetDropLifetimeExpired:vector(packetBytes):count 0
scalar RipNetworkA.router4.ipv4.ip packetDropLifetimeExpired:vector(packetBytes):sum 0
scalar RipNetworkA.router4.ipv4.ip packetDropLifetimeExpired:vector(packetBytes):sumweights 0
scalar RipNetworkA.router4.ipv4.ip packetDropLifetimeExpired:vector(packetBytes):mean -nan
scalar RipNetworkA.router4.ipv4.ip packetDropLifetimeExpired:vector(packetBytes):stddev nan
scalar RipNetworkA.router4.ipv4.ip packetDropLifetimeExpired:vector(packetBytes):min inf
scalar RipNetworkA.router4.ipv4.ip packetDropLifetimeExpired:vector(packetBytes):max -inf
scalar RipNetworkA.router4.ipv4.ip packetDropLifetimeExpired:vector(packetBytes):starttime nan
scalar RipNetworkA.router4.ipv4.ip packetDropLifetimeExpired:vector(packetBytes):endtime nan
scalar RipNetworkA.router4.ipv4.ip packetDropNoInterfaceFound:vector(packetBytes):count 0
scalar RipNetworkA.router4.ipv4.ip packetDropNoInterfaceFound:vector(packetBytes):sum 0
scalar RipNetworkA.router4.ipv4.ip packetDropNoInterfaceFound:vector(packetBytes):sumweights 0
scalar RipNetworkA.router4.ipv4.ip packetDropNoInterfaceFound:vector(packetBytes):mean -nan
scalar RipNetworkA.router4.ipv4.ip packetDropNoInterfaceFound:vector(packetBytes):stddev nan
scalar RipNetworkA.router4.ipv4.ip packetDropNoInterfaceFound:vector(packetBytes):min inf
scalar RipNetworkA.router4.ipv4.ip packetDropNoInterfaceFound:vector(packetBytes):max -inf
scalar RipNetworkA.router4.ipv4.ip packetDropNoInterfaceFound:vector(packetBytes):starttime nan
scalar RipNetworkA.router4.ipv4.ip packetDropNoInterfaceFound:vector(packetBytes):endtime nan
scalar RipNetworkA.router4.ipv4.ip packetDropNoRouteFound:vector(packetBytes):count 0
scalar RipNetworkA.router4.ipv4.ip packetDropNoRouteFound:vector(packetBytes):sum 0
scalar RipNetworkA.router4.ipv4.ip packetDropNoRouteFound:vector(packetBytes):sumweights 0
scalar RipNetworkA.router4.ipv4.ip packetDropNoRouteFound:vector(packetBytes):mean -nan
scalar RipNetworkA.router4.ipv4.ip packetDropNoRouteFound:vector(packetBytes):stddev nan
scalar RipNetworkA.router4.ipv4.ip packetDropNoRouteFound:vector(packetBytes):min inf
scalar RipNetworkA.router4.ipv4.ip packetDropNoRouteFound:vector(packetBytes):max -inf
scalar RipNetworkA.router4.ipv4.ip packetDropNoRouteFound:vector(packetBytes):starttime nan
scalar RipNetworkA.router4.ipv4.ip packetDropNoRouteFound:vector(packetBytes):endtime nan
scalar RipNetworkA.router4.ipv4.ip packetDropUndefined:vector(packetBytes):count 0
scalar RipNetworkA.router4.ipv4.ip packetDropUndefined:vector(packetBytes):sum 0
scalar RipNetworkA.router4.ipv4.ip packetDropUndefined:vector(packetBytes):sumweights 0
scalar RipNetworkA.router4.ipv4.ip packetDropUndefined:vector(packetBytes):mean -nan
scalar RipNetworkA.router4.ipv4.ip packetDropUndefined:vector(packetBytes):stddev nan
scalar RipNetworkA.router4.ipv4.ip packetDropUndefined:vector(packetBytes):min inf
scalar RipNetworkA.router4.ipv4.ip packetDropUndefined:vector(packetBytes):max -inf
scalar RipNetworkA.router4.ipv4.ip packetDropUndefined:vector(packetBytes):starttime nan
scalar RipNetworkA.router4.ipv4.ip packetDropUndefined:vector(packetBytes):endtime nan
scalar RipNetworkA.router4.udp packetSent:vector(packetBytes):count 69
scalar RipNetworkA.router4.udp packetSent:vector(packetBytes):sum 4848
scalar RipNetworkA.router4.udp packetSent:vector(packetBytes):sumweights 69
scalar RipNetworkA.router4.udp packetSent:vector(packetBytes):mean 70.260869565217391
scalar RipNetworkA.router4.udp packetSent:vector(packetBytes):stddev 8.2170056337864388
scalar RipNetworkA.router4.udp packetSent:vector(packetBytes):min 32
scalar RipNetworkA.router4.udp packetSent:vector(packetBytes):max 72
scalar RipNetworkA.router4.udp packetSent:vector(packetBytes):starttime 0.6027633703780001
scalar RipNetworkA.router4.udp packetSent:vector(packetBytes):endtime 990.60276337037817
scalar RipNetworkA.router4.udp outgoingDataRate:vector:count 10000
scalar RipNetworkA.router4.udp outgoingDataRate:vector:sum 387840
scalar RipNetworkA.router4.udp outgoingDataRate:vector:sumweights 10000
scalar RipNetworkA.router4.udp outgoingDataRate:vector:mean 38.783999999999999
scalar RipNetworkA.router4.udp outgoingDataRate:vector:stddev 660.35909076568009
scalar RipNetworkA.router4.udp outgoingDataRate:vector:min 0
scalar RipNetworkA.router4.udp outgoingDataRate:vector:max 11520.000000000002
scalar RipNetworkA.router4.udp outgoingDataRate:vector:starttime 0.10000000000000001
scalar RipNetworkA.router4.udp outgoingDataRate:vector:endtime 1000
scalar RipNetworkA.router4.udp packetReceived:vector(packetBytes):count 68
scalar RipNetworkA.router4.udp packetReceived:vector(packetBytes):sum 5456
scalar RipNetworkA.router4.udp packetReceived:vector(packetBytes):sumweights 68
scalar RipNetworkA.router4.udp packetReceived:vector(packetBytes):mean 80.235294117647058
scalar RipNetworkA.router4.udp packetReceived:vector(packetBytes):stddev 12.571132112851686
scalar RipNetworkA.router4.udp packetReceived:vector(packetBytes):min 32
scalar RipNetworkA.router4.udp packetReceived:vector(packetBytes):max 92
scalar RipNetworkA.router4.udp packetReceived:vector(packetBytes):starttime 0.60277755037800007
scalar RipNetworkA.router4.udp packetReceived:vector(packetBytes):endtime 990.84427523409022
scalar RipNetworkA.router4.udp passedUpPk:vector(count):count 69
scalar RipNetworkA.router4.udp passedUpPk:vector(count):sum 2346
scalar RipNetworkA.router4.udp passedUpPk:vector(count):sumweights 69
scalar RipNetworkA.router4.udp passedUpPk:vector(count):mean 34
scalar RipNetworkA.router4.udp passedUpPk:vector(count):stddev 20.062402647738878
scalar RipNetworkA.router4.udp passedUpPk:vector(count):min 0
scalar RipNetworkA.router4.udp passedUpPk:vector(count):max 68
scalar RipNetworkA.router4.udp passedUpPk:vector(count):starttime 0
scalar RipNetworkA.router4.udp passedUpPk:vector(count):endtime 990.84427523409022
scalar RipNetworkA.router4.udp droppedPkWrongPort:vector(count):count 1
scalar RipNetworkA.router4.udp droppedPkWrongPort:vector(count):sum 0
scalar RipNetworkA.router4.udp droppedPkWrongPort:vector(count):sumweights 1
scalar RipNetworkA.router4.udp droppedPkWrongPort:vector(count):mean 0
scalar RipNetworkA.router4.udp droppedPkWrongPort:vector(count):stddev nan
scalar RipNetworkA.router4.udp droppedPkWrongPort:vector(count):min 0
scalar RipNetworkA.router4.udp droppedPkWrongPort:vector(count):max 0
scalar RipNetworkA.router4.udp droppedPkWrongPort:vector(count):starttime 0
scalar RipNetworkA.router4.udp droppedPkWrongPort:vector(count):endtime 0
scalar RipNetworkA.router4.udp droppedPkBadChecksum:vector(count):count 1
scalar RipNetworkA.router4.udp droppedPkBadChecksum:vector(count):sum 0
scalar RipNetworkA.router4.udp droppedPkBadChecksum:vector(count):sumweights 1
scalar RipNetworkA.router4.udp droppedPkBadChecksum:vector(count):mean 0
scalar RipNetworkA.router4.udp droppedPkBadChecksum:vector(count):stddev nan
scalar RipNetworkA.router4.udp droppedPkBadChecksum:vector(count):min 0
scalar RipNetworkA.router4.udp droppedPkBadChecksum:vector(count):max 0
scalar RipNetworkA.router4.udp droppedPkBadChecksum:vector(count):starttime 0
scalar RipNetworkA.router4.udp droppedPkBadChecksum:vector(count):endtime 0
scalar RipNetworkA.router4.rip sentRequest:vector(constant1):count 3
scalar RipNetworkA.router4.rip sentRequest:vector(constant1):sum 3
scalar RipNetworkA.router4.rip sentRequest:vector(constant1):sumweights 3
scalar RipNetworkA.router4.rip sentRequest:vector(constant1):mean 1
scalar RipNetworkA.router4.rip sentRequest:vector(constant1):stddev 0
scalar RipNetworkA.router4.rip sentRequest:vector(constant1):min 1
scalar RipNetworkA.router4.rip sentRequest:vector(constant1):max 1
scalar RipNetworkA.router4.rip sentRequest:vector(constant1):starttime 0
scalar RipNetworkA.router4.rip sentRequest:vector(constant1):endtime 0.6027633703780001
scalar RipNetworkA.router4.rip sentUpdate:vector(constant1):count 68
scalar RipNetworkA.router4.rip sentUpdate:vector(constant1):sum 68
scalar RipNetworkA.router4.rip sentUpdate:vector(constant1):sumweights 68
scalar RipNetworkA.router4.rip sentUpdate:vector(constant1):mean 1
scalar RipNetworkA.router4.rip sentUpdate:vector(constant1):stddev 0
scalar RipNetworkA.router4.rip sentUpdate:vector(constant1):min 1
scalar RipNetworkA.router4.rip sentUpdate:vector(constant1):max 1
scalar RipNetworkA.router4.rip sentUpdate:vector(constant1):starttime 0
scalar RipNetworkA.router4.rip sentUpdate:vector(constant1):endtime 990.60276337037817
scalar RipNetworkA.router4.rip rcvdResponse:vector(constant1):count 68
scalar RipNetworkA.router4.rip rcvdResponse:vector(constant1):sum 68
scalar RipNetworkA.router4.rip rcvdResponse:vector(constant1):sumweights 68
scalar RipNetworkA.router4.rip rcvdResponse:vector(constant1):mean 1
scalar RipNetworkA.router4.rip rcvdResponse:vector(constant1):stddev 0
scalar RipNetworkA.router4.rip rcvdResponse:vector(constant1):min 1
scalar RipNetworkA.router4.rip rcvdResponse:vector(constant1):max 1
scalar RipNetworkA.router4.rip rcvdResponse:vector(constant1):starttime 0
scalar RipNetworkA.router4.rip rcvdResponse:vector(constant1):endtime 990.84427523409022
scalar RipNetworkA.router4.rip badResponse:vector(constant1):count 1
scalar RipNetworkA.router4.rip badResponse:vector(constant1):sum 1
scalar RipNetworkA.router4.rip badResponse:vector(constant1):sumweights 1
scalar RipNetworkA.router4.rip badResponse:vector(constant1):mean 1
scalar RipNetworkA.router4.rip badResponse:vector(constant1):stddev nan
scalar RipNetworkA.router4.rip badResponse:vector(constant1):min 1
scalar RipNetworkA.router4.rip badResponse:vector(constant1):max 1
scalar RipNetworkA.router4.rip badResponse:vector(constant1):starttime 0
scalar RipNetworkA.router4.rip badResponse:vector(constant1):endtime 0
scalar RipNetworkA.router4.rip numRoutes:vector:count 6
scalar RipNetworkA.router4.rip numRoutes:vector:sum 21
scalar RipNetworkA.router4.rip numRoutes:vector:sumweights 6
scalar RipNetworkA.router4.rip numRoutes:vector:mean 3.5
scalar RipNetworkA.router4.rip numRoutes:vector:stddev 1.8708286933869707
scalar RipNetworkA.router4.rip numRoutes:vector:min 1
scalar RipNetworkA.router4.rip numRoutes:vector:max 6
scalar RipNetworkA.router4.rip numRoutes:vector:starttime 0.6027633703780001
scalar RipNetworkA.router4.rip numRoutes:vector:endtime 30.844275234090009

