version 3
run Step7TriggeredUpdates-0-20260105-11:07:08-46084
attr configname Step7TriggeredUpdates
attr datetime 20260105-11:07:08
attr datetimef 20260105-110708
attr experiment Step7TriggeredUpdates
attr inifile omnetpp.ini
attr iterationvars ""
attr iterationvarsd ""
attr iterationvarsf ""
attr measurement ""
attr network RipNetworkC
attr processid 46084
attr repetition 0
attr replication #0
attr resultdir results
attr runnumber 0
attr seedset 0
config **.param-recording false
config image-path /home/user/inet/images
config output-scalar-file results/omnetpp.ini-Step7TriggeredUpdates-#0.sca
config output-scalar-precision 17
config output-vector-file results/omnetpp.ini-Step7TriggeredUpdates-#0.vec
config output-vector-precision 17
config record-eventlog false
config sim-time-limit 200s
config extends Step7
config sim-time-limit 200s
config *.router*.rip.triggeredUpdate true
config *.router*.rip.ripConfig "xml(\"<config> <interface hosts='router*' mode='SplitHorizon' /> </config>\")"
config description "Count to infinity (loop instability with higher number of nodes)"
config extends Step6
config network RipNetworkC
config sim-time-limit 500s
config *.host0.numApps 0
config description "Count to infinity (two-node loop instability)"
config network RipNetworkB
config sim-time-limit 500s
config *.configurator.config "xml(\"<config>                                 <interface hosts='**' address='10.x.x.x' netmask='255.x.x.x'/>                                 <autoroute sourceHosts='host*'/>                              </config>\")"
config *.configurator.addStaticRoutes true
config *.router*.hasRip true
config *.router*.rip.startupTime uniform(0s,1s)
config *.router*.rip.ripConfig "xml(\"<config> <interface hosts='router*' mode='NoSplitHorizon' /> </config>\")"
config *.router*.rip.triggeredUpdate false
config *.scenarioManager.script "xml(\"<scenario>                                     <disconnect t='50' src-module='router1' dest-module='switch1' />                                 </scenario>\")"
config *.visualizer.interfaceTableVisualizer[0].displayInterfaceTables true
config *.visualizer.routingTableVisualizer[*].nodeFilter "\"router* or host0 or host3\""
config *.visualizer.routingTableVisualizer[0].destinationFilter "\"host0\""
config *.visualizer.routingTableVisualizer[1].destinationFilter "\"host3\""
config **.arp.typename GlobalArp
config *.visualizer.typename IntegratedMultiCanvasVisualizer
config *.visualizer.numRoutingTableVisualizers 2
config *.visualizer.routingTableVisualizer[*].displayRoutingTables true
config *.visualizer.routingTableVisualizer[*].nodeFilter "\"router* or host0 or host6\""
config *.visualizer.routingTableVisualizer[*].labelFormat "\"%d/%m (%e) -> %g (%n)\""
config *.visualizer.routingTableVisualizer[0].destinationFilter "\"host0\""
config *.visualizer.routingTableVisualizer[0].lineColor "\"red\""
config *.visualizer.routingTableVisualizer[1].destinationFilter "\"host6\""
config *.visualizer.routingTableVisualizer[1].lineColor "\"blue\""
config *.visualizer.interfaceTableVisualizer[0].nodeFilter "\"not switch*\""

scalar RipNetworkC.host0.ethernet pauseSent:count 0
scalar RipNetworkC.host0.ethernet pauseSent:sum 0
scalar RipNetworkC.host0.ethernet decapPk:count 10
scalar RipNetworkC.host0.ethernet decapPk:sum(packetBytes) 1200
scalar RipNetworkC.host0.ethernet encapPk:count 0
scalar RipNetworkC.host0.ethernet encapPk:sum(packetBytes) 0
scalar RipNetworkC.host0.lo[0].lo rcvdPkFromHl:count 0
scalar RipNetworkC.host0.lo[0].lo rcvdPkFromHl:sum(packetBytes) 0
scalar RipNetworkC.host0.lo[0].lo passedUpPk:count 0
scalar RipNetworkC.host0.lo[0].lo passedUpPk:sum(packetBytes) 0
scalar RipNetworkC.host0.lo[0] packetDropInterfaceDown:count 0
scalar RipNetworkC.host0.lo[0] packetDropInterfaceDown:sum(packetBytes) 0
scalar RipNetworkC.host0.lo[0] packetDropNoCarrier:count 0
scalar RipNetworkC.host0.lo[0] packetDropNoCarrier:sum(packetBytes) 0
scalar RipNetworkC.host0.eth[0].queue queueLength:last 0
scalar RipNetworkC.host0.eth[0].queue queueLength:max 0
scalar RipNetworkC.host0.eth[0].queue queueLength:timeavg 0
scalar RipNetworkC.host0.eth[0].queue queueBitLength:last 0
scalar RipNetworkC.host0.eth[0].queue queueBitLength:max 0
scalar RipNetworkC.host0.eth[0].queue queueBitLength:timeavg 0
scalar RipNetworkC.host0.eth[0].queue outgoingPackets:count 0
scalar RipNetworkC.host0.eth[0].queue outgoingPacketLengths:sum 0
scalar RipNetworkC.host0.eth[0].queue incomingPackets:count 0
scalar RipNetworkC.host0.eth[0].queue incomingPacketLengths:sum 0
scalar RipNetworkC.host0.eth[0].queue droppedPacketsQueueOverflow:count 0
scalar RipNetworkC.host0.eth[0].queue droppedPacketLengthsQueueOverflow:sum 0
scalar RipNetworkC.host0.eth[0].mac "simulated time" 200
scalar RipNetworkC.host0.eth[0].mac full-duplex 1
scalar RipNetworkC.host0.eth[0].mac "frames/sec sent" 0
scalar RipNetworkC.host0.eth[0].mac "frames/sec rcvd" 0.050000000000000003
scalar RipNetworkC.host0.eth[0].mac "bits/sec sent" 0
scalar RipNetworkC.host0.eth[0].mac "bits/sec rcvd" 55.200000000000003
scalar RipNetworkC.host0.eth[0].mac "rx channel idle (%)" 99.9999416
scalar RipNetworkC.host0.eth[0].mac "rx channel utilization (%)" 5.8400000000000003e-05
scalar RipNetworkC.host0.eth[0].mac rxPausePkUnits:count 0
scalar RipNetworkC.host0.eth[0].mac rxPausePkUnits:sum 0
scalar RipNetworkC.host0.eth[0].mac txPausePkUnits:count 0
scalar RipNetworkC.host0.eth[0].mac txPausePkUnits:sum 0
scalar RipNetworkC.host0.eth[0].mac rxPkOk:count 10
scalar RipNetworkC.host0.eth[0].mac rxPkOk:sum(packetBytes) 1380
scalar RipNetworkC.host0.eth[0].mac txPk:count 0
scalar RipNetworkC.host0.eth[0].mac txPk:sum(packetBytes) 0
scalar RipNetworkC.host0.eth[0].mac packetReceivedFromUpper:count 0
scalar RipNetworkC.host0.eth[0].mac packetReceivedFromUpper:sum(packetBytes) 0
scalar RipNetworkC.host0.eth[0].mac passedUpPk:count 10
scalar RipNetworkC.host0.eth[0].mac passedUpPk:sum(packetBytes) 1380
scalar RipNetworkC.host0.eth[0].mac packetDropIncorrectlyReceived:count 0
scalar RipNetworkC.host0.eth[0].mac packetDropIncorrectlyReceived:sum(packetBytes) 0
scalar RipNetworkC.host0.eth[0].mac packetDropInterfaceDown:count 0
scalar RipNetworkC.host0.eth[0].mac packetDropInterfaceDown:sum(packetBytes) 0
scalar RipNetworkC.host0.eth[0].mac packetDropNotAddressedToUs:count 0
scalar RipNetworkC.host0.eth[0].mac packetDropNotAddressedToUs:sum(packetBytes) 0
scalar RipNetworkC.host0.eth[0] packetDropInterfaceDown:count 0
scalar RipNetworkC.host0.eth[0] packetDropInterfaceDown:sum(packetBytes) 0
scalar RipNetworkC.host0.eth[0] packetDropNoCarrier:count 0
scalar RipNetworkC.host0.eth[0] packetDropNoCarrier:sum(packetBytes) 0
scalar RipNetworkC.host0.ipv4.ip packetDropAddressResolutionFailed:count 0
scalar RipNetworkC.host0.ipv4.ip packetDropAddressResolutionFailed:sum(packetBytes) 0
scalar RipNetworkC.host0.ipv4.ip packetDropHopLimitReached:count 0
scalar RipNetworkC.host0.ipv4.ip packetDropHopLimitReached:sum(packetBytes) 0
scalar RipNetworkC.host0.ipv4.ip packetDropForwardingDisabled:count 0
scalar RipNetworkC.host0.ipv4.ip packetDropForwardingDisabled:sum(packetBytes) 0
scalar RipNetworkC.host0.ipv4.ip packetDropLifetimeExpired:count 0
scalar RipNetworkC.host0.ipv4.ip packetDropLifetimeExpired:sum(packetBytes) 0
scalar RipNetworkC.host0.ipv4.ip packetDropNoInterfaceFound:count 0
scalar RipNetworkC.host0.ipv4.ip packetDropNoInterfaceFound:sum(packetBytes) 0
scalar RipNetworkC.host0.ipv4.ip packetDropNoRouteFound:count 0
scalar RipNetworkC.host0.ipv4.ip packetDropNoRouteFound:sum(packetBytes) 0
scalar RipNetworkC.host0.ipv4.ip packetDropUndefined:count 0
scalar RipNetworkC.host0.ipv4.ip packetDropUndefined:sum(packetBytes) 0
scalar RipNetworkC.host0.udp packetReceived:count 0
scalar RipNetworkC.host0.udp packetReceived:sum(packetBytes) 0
scalar RipNetworkC.host0.udp packetSent:count 0
scalar RipNetworkC.host0.udp packetSent:sum(packetBytes) 0
scalar RipNetworkC.host0.udp passedUpPk:count 0
scalar RipNetworkC.host0.udp droppedPkWrongPort:count 0
scalar RipNetworkC.host0.udp droppedPkBadChecksum:count 0
scalar RipNetworkC.host1.ethernet pauseSent:count 0
scalar RipNetworkC.host1.ethernet pauseSent:sum 0
scalar RipNetworkC.host1.ethernet decapPk:count 10
scalar RipNetworkC.host1.ethernet decapPk:sum(packetBytes) 1200
scalar RipNetworkC.host1.ethernet encapPk:count 0
scalar RipNetworkC.host1.ethernet encapPk:sum(packetBytes) 0
scalar RipNetworkC.host1.lo[0].lo rcvdPkFromHl:count 0
scalar RipNetworkC.host1.lo[0].lo rcvdPkFromHl:sum(packetBytes) 0
scalar RipNetworkC.host1.lo[0].lo passedUpPk:count 0
scalar RipNetworkC.host1.lo[0].lo passedUpPk:sum(packetBytes) 0
scalar RipNetworkC.host1.lo[0] packetDropInterfaceDown:count 0
scalar RipNetworkC.host1.lo[0] packetDropInterfaceDown:sum(packetBytes) 0
scalar RipNetworkC.host1.lo[0] packetDropNoCarrier:count 0
scalar RipNetworkC.host1.lo[0] packetDropNoCarrier:sum(packetBytes) 0
scalar RipNetworkC.host1.eth[0].queue queueLength:last 0
scalar RipNetworkC.host1.eth[0].queue queueLength:max 0
scalar RipNetworkC.host1.eth[0].queue queueLength:timeavg 0
scalar RipNetworkC.host1.eth[0].queue queueBitLength:last 0
scalar RipNetworkC.host1.eth[0].queue queueBitLength:max 0
scalar RipNetworkC.host1.eth[0].queue queueBitLength:timeavg 0
scalar RipNetworkC.host1.eth[0].queue outgoingPackets:count 0
scalar RipNetworkC.host1.eth[0].queue outgoingPacketLengths:sum 0
scalar RipNetworkC.host1.eth[0].queue incomingPackets:count 0
scalar RipNetworkC.host1.eth[0].queue incomingPacketLengths:sum 0
scalar RipNetworkC.host1.eth[0].queue droppedPacketsQueueOverflow:count 0
scalar RipNetworkC.host1.eth[0].queue droppedPacketLengthsQueueOverflow:sum 0
scalar RipNetworkC.host1.eth[0].mac "simulated time" 200
scalar RipNetworkC.host1.eth[0].mac full-duplex 1
scalar RipNetworkC.host1.eth[0].mac "frames/sec sent" 0
scalar RipNetworkC.host1.eth[0].mac "frames/sec rcvd" 0.050000000000000003
scalar RipNetworkC.host1.eth[0].mac "bits/sec sent" 0
scalar RipNetworkC.host1.eth[0].mac "bits/sec rcvd" 55.200000000000003
scalar RipNetworkC.host1.eth[0].mac "rx channel idle (%)" 99.9999416
scalar RipNetworkC.host1.eth[0].mac "rx channel utilization (%)" 5.8400000000000003e-05
scalar RipNetworkC.host1.eth[0].mac rxPausePkUnits:count 0
scalar RipNetworkC.host1.eth[0].mac rxPausePkUnits:sum 0
scalar RipNetworkC.host1.eth[0].mac txPausePkUnits:count 0
scalar RipNetworkC.host1.eth[0].mac txPausePkUnits:sum 0
scalar RipNetworkC.host1.eth[0].mac rxPkOk:count 10
scalar RipNetworkC.host1.eth[0].mac rxPkOk:sum(packetBytes) 1380
scalar RipNetworkC.host1.eth[0].mac txPk:count 0
scalar RipNetworkC.host1.eth[0].mac txPk:sum(packetBytes) 0
scalar RipNetworkC.host1.eth[0].mac packetReceivedFromUpper:count 0
scalar RipNetworkC.host1.eth[0].mac packetReceivedFromUpper:sum(packetBytes) 0
scalar RipNetworkC.host1.eth[0].mac passedUpPk:count 10
scalar RipNetworkC.host1.eth[0].mac passedUpPk:sum(packetBytes) 1380
scalar RipNetworkC.host1.eth[0].mac packetDropIncorrectlyReceived:count 0
scalar RipNetworkC.host1.eth[0].mac packetDropIncorrectlyReceived:sum(packetBytes) 0
scalar RipNetworkC.host1.eth[0].mac packetDropInterfaceDown:count 0
scalar RipNetworkC.host1.eth[0].mac packetDropInterfaceDown:sum(packetBytes) 0
scalar RipNetworkC.host1.eth[0].mac packetDropNotAddressedToUs:count 0
scalar RipNetworkC.host1.eth[0].mac packetDropNotAddressedToUs:sum(packetBytes) 0
scalar RipNetworkC.host1.eth[0] packetDropInterfaceDown:count 0
scalar RipNetworkC.host1.eth[0] packetDropInterfaceDown:sum(packetBytes) 0
scalar RipNetworkC.host1.eth[0] packetDropNoCarrier:count 0
scalar RipNetworkC.host1.eth[0] packetDropNoCarrier:sum(packetBytes) 0
scalar RipNetworkC.host1.ipv4.ip packetDropAddressResolutionFailed:count 0
scalar RipNetworkC.host1.ipv4.ip packetDropAddressResolutionFailed:sum(packetBytes) 0
scalar RipNetworkC.host1.ipv4.ip packetDropHopLimitReached:count 0
scalar RipNetworkC.host1.ipv4.ip packetDropHopLimitReached:sum(packetBytes) 0
scalar RipNetworkC.host1.ipv4.ip packetDropForwardingDisabled:count 0
scalar RipNetworkC.host1.ipv4.ip packetDropForwardingDisabled:sum(packetBytes) 0
scalar RipNetworkC.host1.ipv4.ip packetDropLifetimeExpired:count 0
scalar RipNetworkC.host1.ipv4.ip packetDropLifetimeExpired:sum(packetBytes) 0
scalar RipNetworkC.host1.ipv4.ip packetDropNoInterfaceFound:count 0
scalar RipNetworkC.host1.ipv4.ip packetDropNoInterfaceFound:sum(packetBytes) 0
scalar RipNetworkC.host1.ipv4.ip packetDropNoRouteFound:count 0
scalar RipNetworkC.host1.ipv4.ip packetDropNoRouteFound:sum(packetBytes) 0
scalar RipNetworkC.host1.ipv4.ip packetDropUndefined:count 0
scalar RipNetworkC.host1.ipv4.ip packetDropUndefined:sum(packetBytes) 0
scalar RipNetworkC.host1.udp packetReceived:count 0
scalar RipNetworkC.host1.udp packetReceived:sum(packetBytes) 0
scalar RipNetworkC.host1.udp packetSent:count 0
scalar RipNetworkC.host1.udp packetSent:sum(packetBytes) 0
scalar RipNetworkC.host1.udp passedUpPk:count 0
scalar RipNetworkC.host1.udp droppedPkWrongPort:count 0
scalar RipNetworkC.host1.udp droppedPkBadChecksum:count 0
scalar RipNetworkC.host2.ethernet pauseSent:count 0
scalar RipNetworkC.host2.ethernet pauseSent:sum 0
scalar RipNetworkC.host2.ethernet decapPk:count 10
scalar RipNetworkC.host2.ethernet decapPk:sum(packetBytes) 1200
scalar RipNetworkC.host2.ethernet encapPk:count 0
scalar RipNetworkC.host2.ethernet encapPk:sum(packetBytes) 0
scalar RipNetworkC.host2.lo[0].lo rcvdPkFromHl:count 0
scalar RipNetworkC.host2.lo[0].lo rcvdPkFromHl:sum(packetBytes) 0
scalar RipNetworkC.host2.lo[0].lo passedUpPk:count 0
scalar RipNetworkC.host2.lo[0].lo passedUpPk:sum(packetBytes) 0
scalar RipNetworkC.host2.lo[0] packetDropInterfaceDown:count 0
scalar RipNetworkC.host2.lo[0] packetDropInterfaceDown:sum(packetBytes) 0
scalar RipNetworkC.host2.lo[0] packetDropNoCarrier:count 0
scalar RipNetworkC.host2.lo[0] packetDropNoCarrier:sum(packetBytes) 0
scalar RipNetworkC.host2.eth[0].queue queueLength:last 0
scalar RipNetworkC.host2.eth[0].queue queueLength:max 0
scalar RipNetworkC.host2.eth[0].queue queueLength:timeavg 0
scalar RipNetworkC.host2.eth[0].queue queueBitLength:last 0
scalar RipNetworkC.host2.eth[0].queue queueBitLength:max 0
scalar RipNetworkC.host2.eth[0].queue queueBitLength:timeavg 0
scalar RipNetworkC.host2.eth[0].queue outgoingPackets:count 0
scalar RipNetworkC.host2.eth[0].queue outgoingPacketLengths:sum 0
scalar RipNetworkC.host2.eth[0].queue incomingPackets:count 0
scalar RipNetworkC.host2.eth[0].queue incomingPacketLengths:sum 0
scalar RipNetworkC.host2.eth[0].queue droppedPacketsQueueOverflow:count 0
scalar RipNetworkC.host2.eth[0].queue droppedPacketLengthsQueueOverflow:sum 0
scalar RipNetworkC.host2.eth[0].mac "simulated time" 200
scalar RipNetworkC.host2.eth[0].mac full-duplex 1
scalar RipNetworkC.host2.eth[0].mac "frames/sec sent" 0
scalar RipNetworkC.host2.eth[0].mac "frames/sec rcvd" 0.050000000000000003
scalar RipNetworkC.host2.eth[0].mac "bits/sec sent" 0
scalar RipNetworkC.host2.eth[0].mac "bits/sec rcvd" 55.200000000000003
scalar RipNetworkC.host2.eth[0].mac "rx channel idle (%)" 99.9999416
scalar RipNetworkC.host2.eth[0].mac "rx channel utilization (%)" 5.8400000000000003e-05
scalar RipNetworkC.host2.eth[0].mac rxPausePkUnits:count 0
scalar RipNetworkC.host2.eth[0].mac rxPausePkUnits:sum 0
scalar RipNetworkC.host2.eth[0].mac txPausePkUnits:count 0
scalar RipNetworkC.host2.eth[0].mac txPausePkUnits:sum 0
scalar RipNetworkC.host2.eth[0].mac rxPkOk:count 10
scalar RipNetworkC.host2.eth[0].mac rxPkOk:sum(packetBytes) 1380
scalar RipNetworkC.host2.eth[0].mac txPk:count 0
scalar RipNetworkC.host2.eth[0].mac txPk:sum(packetBytes) 0
scalar RipNetworkC.host2.eth[0].mac packetReceivedFromUpper:count 0
scalar RipNetworkC.host2.eth[0].mac packetReceivedFromUpper:sum(packetBytes) 0
scalar RipNetworkC.host2.eth[0].mac passedUpPk:count 10
scalar RipNetworkC.host2.eth[0].mac passedUpPk:sum(packetBytes) 1380
scalar RipNetworkC.host2.eth[0].mac packetDropIncorrectlyReceived:count 0
scalar RipNetworkC.host2.eth[0].mac packetDropIncorrectlyReceived:sum(packetBytes) 0
scalar RipNetworkC.host2.eth[0].mac packetDropInterfaceDown:count 0
scalar RipNetworkC.host2.eth[0].mac packetDropInterfaceDown:sum(packetBytes) 0
scalar RipNetworkC.host2.eth[0].mac packetDropNotAddressedToUs:count 0
scalar RipNetworkC.host2.eth[0].mac packetDropNotAddressedToUs:sum(packetBytes) 0
scalar RipNetworkC.host2.eth[0] packetDropInterfaceDown:count 0
scalar RipNetworkC.host2.eth[0] packetDropInterfaceDown:sum(packetBytes) 0
scalar RipNetworkC.host2.eth[0] packetDropNoCarrier:count 0
scalar RipNetworkC.host2.eth[0] packetDropNoCarrier:sum(packetBytes) 0
scalar RipNetworkC.host2.ipv4.ip packetDropAddressResolutionFailed:count 0
scalar RipNetworkC.host2.ipv4.ip packetDropAddressResolutionFailed:sum(packetBytes) 0
scalar RipNetworkC.host2.ipv4.ip packetDropHopLimitReached:count 0
scalar RipNetworkC.host2.ipv4.ip packetDropHopLimitReached:sum(packetBytes) 0
scalar RipNetworkC.host2.ipv4.ip packetDropForwardingDisabled:count 0
scalar RipNetworkC.host2.ipv4.ip packetDropForwardingDisabled:sum(packetBytes) 0
scalar RipNetworkC.host2.ipv4.ip packetDropLifetimeExpired:count 0
scalar RipNetworkC.host2.ipv4.ip packetDropLifetimeExpired:sum(packetBytes) 0
scalar RipNetworkC.host2.ipv4.ip packetDropNoInterfaceFound:count 0
scalar RipNetworkC.host2.ipv4.ip packetDropNoInterfaceFound:sum(packetBytes) 0
scalar RipNetworkC.host2.ipv4.ip packetDropNoRouteFound:count 0
scalar RipNetworkC.host2.ipv4.ip packetDropNoRouteFound:sum(packetBytes) 0
scalar RipNetworkC.host2.ipv4.ip packetDropUndefined:count 0
scalar RipNetworkC.host2.ipv4.ip packetDropUndefined:sum(packetBytes) 0
scalar RipNetworkC.host2.udp packetReceived:count 0
scalar RipNetworkC.host2.udp packetReceived:sum(packetBytes) 0
scalar RipNetworkC.host2.udp packetSent:count 0
scalar RipNetworkC.host2.udp packetSent:sum(packetBytes) 0
scalar RipNetworkC.host2.udp passedUpPk:count 0
scalar RipNetworkC.host2.udp droppedPkWrongPort:count 0
scalar RipNetworkC.host2.udp droppedPkBadChecksum:count 0
scalar RipNetworkC.router0.ethernet pauseSent:count 0
scalar RipNetworkC.router0.ethernet pauseSent:sum 0
scalar RipNetworkC.router0.ethernet decapPk:count 29
scalar RipNetworkC.router0.ethernet decapPk:sum(packetBytes) 2608
scalar RipNetworkC.router0.ethernet encapPk:count 31
scalar RipNetworkC.router0.ethernet encapPk:sum(packetBytes) 3172
scalar RipNetworkC.router0.lo[0].lo rcvdPkFromHl:count 0
scalar RipNetworkC.router0.lo[0].lo rcvdPkFromHl:sum(packetBytes) 0
scalar RipNetworkC.router0.lo[0].lo passedUpPk:count 0
scalar RipNetworkC.router0.lo[0].lo passedUpPk:sum(packetBytes) 0
scalar RipNetworkC.router0.lo[0] packetDropInterfaceDown:count 0
scalar RipNetworkC.router0.lo[0] packetDropInterfaceDown:sum(packetBytes) 0
scalar RipNetworkC.router0.lo[0] packetDropNoCarrier:count 0
scalar RipNetworkC.router0.lo[0] packetDropNoCarrier:sum(packetBytes) 0
scalar RipNetworkC.router0.eth[0].queue queueLength:last 0
scalar RipNetworkC.router0.eth[0].queue queueLength:max 0
scalar RipNetworkC.router0.eth[0].queue queueLength:timeavg 0
scalar RipNetworkC.router0.eth[0].queue queueBitLength:last 0
scalar RipNetworkC.router0.eth[0].queue queueBitLength:max 0
scalar RipNetworkC.router0.eth[0].queue queueBitLength:timeavg 0
scalar RipNetworkC.router0.eth[0].queue outgoingPackets:count 9
scalar RipNetworkC.router0.eth[0].queue outgoingPacketLengths:sum 8560
scalar RipNetworkC.router0.eth[0].queue incomingPackets:count 9
scalar RipNetworkC.router0.eth[0].queue incomingPacketLengths:sum 8560
scalar RipNetworkC.router0.eth[0].queue droppedPacketsQueueOverflow:count 0
scalar RipNetworkC.router0.eth[0].queue droppedPacketLengthsQueueOverflow:sum 0
scalar RipNetworkC.router0.eth[0].mac "simulated time" 200
scalar RipNetworkC.router0.eth[0].mac full-duplex 1
scalar RipNetworkC.router0.eth[0].mac "frames/sec sent" 0.044999999999999998
scalar RipNetworkC.router0.eth[0].mac "frames/sec rcvd" 0.050000000000000003
scalar RipNetworkC.router0.eth[0].mac "bits/sec sent" 42.799999999999997
scalar RipNetworkC.router0.eth[0].mac "bits/sec rcvd" 39.200000000000003
scalar RipNetworkC.router0.eth[0].mac "rx channel idle (%)" 99.999957600000002
scalar RipNetworkC.router0.eth[0].mac "rx channel utilization (%)" 4.2400000000000001e-05
scalar RipNetworkC.router0.eth[0].mac rxPausePkUnits:count 0
scalar RipNetworkC.router0.eth[0].mac rxPausePkUnits:sum 0
scalar RipNetworkC.router0.eth[0].mac txPausePkUnits:count 0
scalar RipNetworkC.router0.eth[0].mac txPausePkUnits:sum 0
scalar RipNetworkC.router0.eth[0].mac rxPkOk:count 10
scalar RipNetworkC.router0.eth[0].mac rxPkOk:sum(packetBytes) 980
scalar RipNetworkC.router0.eth[0].mac txPk:count 9
scalar RipNetworkC.router0.eth[0].mac txPk:sum(packetBytes) 1070
scalar RipNetworkC.router0.eth[0].mac packetReceivedFromUpper:count 9
scalar RipNetworkC.router0.eth[0].mac packetReceivedFromUpper:sum(packetBytes) 1070
scalar RipNetworkC.router0.eth[0].mac passedUpPk:count 10
scalar RipNetworkC.router0.eth[0].mac passedUpPk:sum(packetBytes) 980
scalar RipNetworkC.router0.eth[0].mac packetDropIncorrectlyReceived:count 0
scalar RipNetworkC.router0.eth[0].mac packetDropIncorrectlyReceived:sum(packetBytes) 0
scalar RipNetworkC.router0.eth[0].mac packetDropInterfaceDown:count 0
scalar RipNetworkC.router0.eth[0].mac packetDropInterfaceDown:sum(packetBytes) 0
scalar RipNetworkC.router0.eth[0].mac packetDropNotAddressedToUs:count 0
scalar RipNetworkC.router0.eth[0].mac packetDropNotAddressedToUs:sum(packetBytes) 0
scalar RipNetworkC.router0.eth[0] packetDropInterfaceDown:count 0
scalar RipNetworkC.router0.eth[0] packetDropInterfaceDown:sum(packetBytes) 0
scalar RipNetworkC.router0.eth[0] packetDropNoCarrier:count 0
scalar RipNetworkC.router0.eth[0] packetDropNoCarrier:sum(packetBytes) 0
scalar RipNetworkC.router0.eth[1].queue queueLength:last 0
scalar RipNetworkC.router0.eth[1].queue queueLength:max 0
scalar RipNetworkC.router0.eth[1].queue queueLength:timeavg 0
scalar RipNetworkC.router0.eth[1].queue queueBitLength:last 0
scalar RipNetworkC.router0.eth[1].queue queueBitLength:max 0
scalar RipNetworkC.router0.eth[1].queue queueBitLength:timeavg 0
scalar RipNetworkC.router0.eth[1].queue outgoingPackets:count 11
scalar RipNetworkC.router0.eth[1].queue outgoingPacketLengths:sum 9520
scalar RipNetworkC.router0.eth[1].queue incomingPackets:count 11
scalar RipNetworkC.router0.eth[1].queue incomingPacketLengths:sum 9520
scalar RipNetworkC.router0.eth[1].queue droppedPacketsQueueOverflow:count 0
scalar RipNetworkC.router0.eth[1].queue droppedPacketLengthsQueueOverflow:sum 0
scalar RipNetworkC.router0.eth[1].mac "simulated time" 200
scalar RipNetworkC.router0.eth[1].mac full-duplex 1
scalar RipNetworkC.router0.eth[1].mac "frames/sec sent" 0.055
scalar RipNetworkC.router0.eth[1].mac "frames/sec rcvd" 0.050000000000000003
scalar RipNetworkC.router0.eth[1].mac "bits/sec sent" 47.600000000000001
scalar RipNetworkC.router0.eth[1].mac "bits/sec rcvd" 44
scalar RipNetworkC.router0.eth[1].mac "rx channel idle (%)" 99.999952800000003
scalar RipNetworkC.router0.eth[1].mac "rx channel utilization (%)" 4.7200000000000002e-05
scalar RipNetworkC.router0.eth[1].mac rxPausePkUnits:count 0
scalar RipNetworkC.router0.eth[1].mac rxPausePkUnits:sum 0
scalar RipNetworkC.router0.eth[1].mac txPausePkUnits:count 0
scalar RipNetworkC.router0.eth[1].mac txPausePkUnits:sum 0
scalar RipNetworkC.router0.eth[1].mac rxPkOk:count 10
scalar RipNetworkC.router0.eth[1].mac rxPkOk:sum(packetBytes) 1100
scalar RipNetworkC.router0.eth[1].mac txPk:count 11
scalar RipNetworkC.router0.eth[1].mac txPk:sum(packetBytes) 1190
scalar RipNetworkC.router0.eth[1].mac packetReceivedFromUpper:count 11
scalar RipNetworkC.router0.eth[1].mac packetReceivedFromUpper:sum(packetBytes) 1190
scalar RipNetworkC.router0.eth[1].mac passedUpPk:count 10
scalar RipNetworkC.router0.eth[1].mac passedUpPk:sum(packetBytes) 1100
scalar RipNetworkC.router0.eth[1].mac packetDropIncorrectlyReceived:count 0
scalar RipNetworkC.router0.eth[1].mac packetDropIncorrectlyReceived:sum(packetBytes) 0
scalar RipNetworkC.router0.eth[1].mac packetDropInterfaceDown:count 0
scalar RipNetworkC.router0.eth[1].mac packetDropInterfaceDown:sum(packetBytes) 0
scalar RipNetworkC.router0.eth[1].mac packetDropNotAddressedToUs:count 0
scalar RipNetworkC.router0.eth[1].mac packetDropNotAddressedToUs:sum(packetBytes) 0
scalar RipNetworkC.router0.eth[1] packetDropInterfaceDown:count 0
scalar RipNetworkC.router0.eth[1] packetDropInterfaceDown:sum(packetBytes) 0
scalar RipNetworkC.router0.eth[1] packetDropNoCarrier:count 0
scalar RipNetworkC.router0.eth[1] packetDropNoCarrier:sum(packetBytes) 0
scalar RipNetworkC.router0.eth[2].queue queueLength:last 0
scalar RipNetworkC.router0.eth[2].queue queueLength:max 0
scalar RipNetworkC.router0.eth[2].queue queueLength:timeavg 0
scalar RipNetworkC.router0.eth[2].queue queueBitLength:last 0
scalar RipNetworkC.router0.eth[2].queue queueBitLength:max 0
scalar RipNetworkC.router0.eth[2].queue queueBitLength:timeavg 0
scalar RipNetworkC.router0.eth[2].queue outgoingPackets:count 11
scalar RipNetworkC.router0.eth[2].queue outgoingPacketLengths:sum 11760
scalar RipNetworkC.router0.eth[2].queue incomingPackets:count 11
scalar RipNetworkC.router0.eth[2].queue incomingPacketLengths:sum 11760
scalar RipNetworkC.router0.eth[2].queue droppedPacketsQueueOverflow:count 0
scalar RipNetworkC.router0.eth[2].queue droppedPacketLengthsQueueOverflow:sum 0
scalar RipNetworkC.router0.eth[2].mac "simulated time" 200
scalar RipNetworkC.router0.eth[2].mac full-duplex 1
scalar RipNetworkC.router0.eth[2].mac "frames/sec sent" 0.055
scalar RipNetworkC.router0.eth[2].mac "frames/sec rcvd" 0.044999999999999998
scalar RipNetworkC.router0.eth[2].mac "bits/sec sent" 58.799999999999997
scalar RipNetworkC.router0.eth[2].mac "bits/sec rcvd" 42
scalar RipNetworkC.router0.eth[2].mac "rx channel idle (%)" 99.999955119999996
scalar RipNetworkC.router0.eth[2].mac "rx channel utilization (%)" 4.4879999999999997e-05
scalar RipNetworkC.router0.eth[2].mac rxPausePkUnits:count 0
scalar RipNetworkC.router0.eth[2].mac rxPausePkUnits:sum 0
scalar RipNetworkC.router0.eth[2].mac txPausePkUnits:count 0
scalar RipNetworkC.router0.eth[2].mac txPausePkUnits:sum 0
scalar RipNetworkC.router0.eth[2].mac rxPkOk:count 9
scalar RipNetworkC.router0.eth[2].mac rxPkOk:sum(packetBytes) 1050
scalar RipNetworkC.router0.eth[2].mac txPk:count 11
scalar RipNetworkC.router0.eth[2].mac txPk:sum(packetBytes) 1470
scalar RipNetworkC.router0.eth[2].mac packetReceivedFromUpper:count 11
scalar RipNetworkC.router0.eth[2].mac packetReceivedFromUpper:sum(packetBytes) 1470
scalar RipNetworkC.router0.eth[2].mac passedUpPk:count 9
scalar RipNetworkC.router0.eth[2].mac passedUpPk:sum(packetBytes) 1050
scalar RipNetworkC.router0.eth[2].mac packetDropIncorrectlyReceived:count 0
scalar RipNetworkC.router0.eth[2].mac packetDropIncorrectlyReceived:sum(packetBytes) 0
scalar RipNetworkC.router0.eth[2].mac packetDropInterfaceDown:count 0
scalar RipNetworkC.router0.eth[2].mac packetDropInterfaceDown:sum(packetBytes) 0
scalar RipNetworkC.router0.eth[2].mac packetDropNotAddressedToUs:count 0
scalar RipNetworkC.router0.eth[2].mac packetDropNotAddressedToUs:sum(packetBytes) 0
scalar RipNetworkC.router0.eth[2] packetDropInterfaceDown:count 0
scalar RipNetworkC.router0.eth[2] packetDropInterfaceDown:sum(packetBytes) 0
scalar RipNetworkC.router0.eth[2] packetDropNoCarrier:count 0
scalar RipNetworkC.router0.eth[2] packetDropNoCarrier:sum(packetBytes) 0
scalar RipNetworkC.router0.ipv4.ip packetDropAddressResolutionFailed:count 0
scalar RipNetworkC.router0.ipv4.ip packetDropAddressResolutionFailed:sum(packetBytes) 0
scalar RipNetworkC.router0.ipv4.ip packetDropHopLimitReached:count 0
scalar RipNetworkC.router0.ipv4.ip packetDropHopLimitReached:sum(packetBytes) 0
scalar RipNetworkC.router0.ipv4.ip packetDropForwardingDisabled:count 0
scalar RipNetworkC.router0.ipv4.ip packetDropForwardingDisabled:sum(packetBytes) 0
scalar RipNetworkC.router0.ipv4.ip packetDropLifetimeExpired:count 0
scalar RipNetworkC.router0.ipv4.ip packetDropLifetimeExpired:sum(packetBytes) 0
scalar RipNetworkC.router0.ipv4.ip packetDropNoInterfaceFound:count 0
scalar RipNetworkC.router0.ipv4.ip packetDropNoInterfaceFound:sum(packetBytes) 0
scalar RipNetworkC.router0.ipv4.ip packetDropNoRouteFound:count 0
scalar RipNetworkC.router0.ipv4.ip packetDropNoRouteFound:sum(packetBytes) 0
scalar RipNetworkC.router0.ipv4.ip packetDropUndefined:count 0
scalar RipNetworkC.router0.ipv4.ip packetDropUndefined:sum(packetBytes) 0
scalar RipNetworkC.router0.udp packetReceived:count 29
scalar RipNetworkC.router0.udp packetReceived:sum(packetBytes) 2028
scalar RipNetworkC.router0.udp packetSent:count 31
scalar RipNetworkC.router0.udp packetSent:sum(packetBytes) 2552
scalar RipNetworkC.router0.udp passedUpPk:count 29
scalar RipNetworkC.router0.udp droppedPkWrongPort:count 0
scalar RipNetworkC.router0.udp droppedPkBadChecksum:count 0
scalar RipNetworkC.router0.rip numRoutes:last 7
scalar RipNetworkC.router0.rip badResponse:count 0
scalar RipNetworkC.router0.rip rcvdResponse:count 26
scalar RipNetworkC.router0.rip sentUpdate:count 28
scalar RipNetworkC.router0.rip sentRequest:count 3
scalar RipNetworkC.router1.ethernet pauseSent:count 0
scalar RipNetworkC.router1.ethernet pauseSent:sum 0
scalar RipNetworkC.router1.ethernet decapPk:count 17
scalar RipNetworkC.router1.ethernet decapPk:sum(packetBytes) 1884
scalar RipNetworkC.router1.ethernet encapPk:count 24
scalar RipNetworkC.router1.ethernet encapPk:sum(packetBytes) 2388
scalar RipNetworkC.router1.lo[0].lo rcvdPkFromHl:count 0
scalar RipNetworkC.router1.lo[0].lo rcvdPkFromHl:sum(packetBytes) 0
scalar RipNetworkC.router1.lo[0].lo passedUpPk:count 0
scalar RipNetworkC.router1.lo[0].lo passedUpPk:sum(packetBytes) 0
scalar RipNetworkC.router1.lo[0] packetDropInterfaceDown:count 0
scalar RipNetworkC.router1.lo[0] packetDropInterfaceDown:sum(packetBytes) 0
scalar RipNetworkC.router1.lo[0] packetDropNoCarrier:count 0
scalar RipNetworkC.router1.lo[0] packetDropNoCarrier:sum(packetBytes) 0
scalar RipNetworkC.router1.eth[0].queue queueLength:last 0
scalar RipNetworkC.router1.eth[0].queue queueLength:max 0
scalar RipNetworkC.router1.eth[0].queue queueLength:timeavg 0
scalar RipNetworkC.router1.eth[0].queue queueBitLength:last 0
scalar RipNetworkC.router1.eth[0].queue queueBitLength:max 0
scalar RipNetworkC.router1.eth[0].queue queueBitLength:timeavg 0
scalar RipNetworkC.router1.eth[0].queue outgoingPackets:count 10
scalar RipNetworkC.router1.eth[0].queue outgoingPacketLengths:sum 7840
scalar RipNetworkC.router1.eth[0].queue incomingPackets:count 10
scalar RipNetworkC.router1.eth[0].queue incomingPacketLengths:sum 7840
scalar RipNetworkC.router1.eth[0].queue droppedPacketsQueueOverflow:count 0
scalar RipNetworkC.router1.eth[0].queue droppedPacketLengthsQueueOverflow:sum 0
scalar RipNetworkC.router1.eth[0].mac "simulated time" 200
scalar RipNetworkC.router1.eth[0].mac full-duplex 1
scalar RipNetworkC.router1.eth[0].mac "frames/sec sent" 0.050000000000000003
scalar RipNetworkC.router1.eth[0].mac "frames/sec rcvd" 0.044999999999999998
scalar RipNetworkC.router1.eth[0].mac "bits/sec sent" 39.200000000000003
scalar RipNetworkC.router1.eth[0].mac "bits/sec rcvd" 42.799999999999997
scalar RipNetworkC.router1.eth[0].mac "rx channel idle (%)" 99.999954320000001
scalar RipNetworkC.router1.eth[0].mac "rx channel utilization (%)" 4.5680000000000003e-05
scalar RipNetworkC.router1.eth[0].mac rxPausePkUnits:count 0
scalar RipNetworkC.router1.eth[0].mac rxPausePkUnits:sum 0
scalar RipNetworkC.router1.eth[0].mac txPausePkUnits:count 0
scalar RipNetworkC.router1.eth[0].mac txPausePkUnits:sum 0
scalar RipNetworkC.router1.eth[0].mac rxPkOk:count 9
scalar RipNetworkC.router1.eth[0].mac rxPkOk:sum(packetBytes) 1070
scalar RipNetworkC.router1.eth[0].mac txPk:count 10
scalar RipNetworkC.router1.eth[0].mac txPk:sum(packetBytes) 980
scalar RipNetworkC.router1.eth[0].mac packetReceivedFromUpper:count 10
scalar RipNetworkC.router1.eth[0].mac packetReceivedFromUpper:sum(packetBytes) 980
scalar RipNetworkC.router1.eth[0].mac passedUpPk:count 9
scalar RipNetworkC.router1.eth[0].mac passedUpPk:sum(packetBytes) 1070
scalar RipNetworkC.router1.eth[0].mac packetDropIncorrectlyReceived:count 0
scalar RipNetworkC.router1.eth[0].mac packetDropIncorrectlyReceived:sum(packetBytes) 0
scalar RipNetworkC.router1.eth[0].mac packetDropInterfaceDown:count 0
scalar RipNetworkC.router1.eth[0].mac packetDropInterfaceDown:sum(packetBytes) 0
scalar RipNetworkC.router1.eth[0].mac packetDropNotAddressedToUs:count 0
scalar RipNetworkC.router1.eth[0].mac packetDropNotAddressedToUs:sum(packetBytes) 0
scalar RipNetworkC.router1.eth[0] packetDropInterfaceDown:count 0
scalar RipNetworkC.router1.eth[0] packetDropInterfaceDown:sum(packetBytes) 0
scalar RipNetworkC.router1.eth[0] packetDropNoCarrier:count 0
scalar RipNetworkC.router1.eth[0] packetDropNoCarrier:sum(packetBytes) 0
scalar RipNetworkC.router1.eth[1].queue queueLength:last 0
scalar RipNetworkC.router1.eth[1].queue queueLength:max 0
scalar RipNetworkC.router1.eth[1].queue queueLength:timeavg 0
scalar RipNetworkC.router1.eth[1].queue queueBitLength:last 0
scalar RipNetworkC.router1.eth[1].queue queueBitLength:max 0
scalar RipNetworkC.router1.eth[1].queue queueBitLength:timeavg 0
scalar RipNetworkC.router1.eth[1].queue outgoingPackets:count 4
scalar RipNetworkC.router1.eth[1].queue outgoingPacketLengths:sum 3840
scalar RipNetworkC.router1.eth[1].queue incomingPackets:count 4
scalar RipNetworkC.router1.eth[1].queue incomingPacketLengths:sum 3840
scalar RipNetworkC.router1.eth[1].queue droppedPacketsQueueOverflow:count 0
scalar RipNetworkC.router1.eth[1].queue droppedPacketLengthsQueueOverflow:sum 0
scalar RipNetworkC.router1.eth[1].mac "simulated time" 200
scalar RipNetworkC.router1.eth[1].mac full-duplex 1
scalar RipNetworkC.router1.eth[1].mac "frames/sec sent" 0.02
scalar RipNetworkC.router1.eth[1].mac "frames/sec rcvd" 0
scalar RipNetworkC.router1.eth[1].mac "bits/sec sent" 19.199999999999999
scalar RipNetworkC.router1.eth[1].mac "bits/sec rcvd" 0
scalar RipNetworkC.router1.eth[1].mac "rx channel idle (%)" 100
scalar RipNetworkC.router1.eth[1].mac "rx channel utilization (%)" 0
scalar RipNetworkC.router1.eth[1].mac rxPausePkUnits:count 0
scalar RipNetworkC.router1.eth[1].mac rxPausePkUnits:sum 0
scalar RipNetworkC.router1.eth[1].mac txPausePkUnits:count 0
scalar RipNetworkC.router1.eth[1].mac txPausePkUnits:sum 0
scalar RipNetworkC.router1.eth[1].mac rxPkOk:count 0
scalar RipNetworkC.router1.eth[1].mac rxPkOk:sum(packetBytes) 0
scalar RipNetworkC.router1.eth[1].mac txPk:count 4
scalar RipNetworkC.router1.eth[1].mac txPk:sum(packetBytes) 480
scalar RipNetworkC.router1.eth[1].mac packetReceivedFromUpper:count 4
scalar RipNetworkC.router1.eth[1].mac packetReceivedFromUpper:sum(packetBytes) 480
scalar RipNetworkC.router1.eth[1].mac passedUpPk:count 0
scalar RipNetworkC.router1.eth[1].mac passedUpPk:sum(packetBytes) 0
scalar RipNetworkC.router1.eth[1].mac packetDropIncorrectlyReceived:count 0
scalar RipNetworkC.router1.eth[1].mac packetDropIncorrectlyReceived:sum(packetBytes) 0
scalar RipNetworkC.router1.eth[1].mac packetDropInterfaceDown:count 0
scalar RipNetworkC.router1.eth[1].mac packetDropInterfaceDown:sum(packetBytes) 0
scalar RipNetworkC.router1.eth[1].mac packetDropNotAddressedToUs:count 0
scalar RipNetworkC.router1.eth[1].mac packetDropNotAddressedToUs:sum(packetBytes) 0
scalar RipNetworkC.router1.eth[1] packetDropInterfaceDown:count 0
scalar RipNetworkC.router1.eth[1] packetDropInterfaceDown:sum(packetBytes) 0
scalar RipNetworkC.router1.eth[1] packetDropNoCarrier:count 0
scalar RipNetworkC.router1.eth[1] packetDropNoCarrier:sum(packetBytes) 0
scalar RipNetworkC.router1.eth[2].queue queueLength:last 0
scalar RipNetworkC.router1.eth[2].queue queueLength:max 0
scalar RipNetworkC.router1.eth[2].queue queueLength:timeavg 0
scalar RipNetworkC.router1.eth[2].queue queueBitLength:last 0
scalar RipNetworkC.router1.eth[2].queue queueBitLength:max 0
scalar RipNetworkC.router1.eth[2].queue queueBitLength:timeavg 0
scalar RipNetworkC.router1.eth[2].queue outgoingPackets:count 10
scalar RipNetworkC.router1.eth[2].queue outgoingPacketLengths:sum 10880
scalar RipNetworkC.router1.eth[2].queue incomingPackets:count 10
scalar RipNetworkC.router1.eth[2].queue incomingPacketLengths:sum 10880
scalar RipNetworkC.router1.eth[2].queue droppedPacketsQueueOverflow:count 0
scalar RipNetworkC.router1.eth[2].queue droppedPacketLengthsQueueOverflow:sum 0
scalar RipNetworkC.router1.eth[2].mac "simulated time" 200
scalar RipNetworkC.router1.eth[2].mac full-duplex 1
scalar RipNetworkC.router1.eth[2].mac "frames/sec sent" 0.050000000000000003
scalar RipNetworkC.router1.eth[2].mac "frames/sec rcvd" 0.040000000000000001
scalar RipNetworkC.router1.eth[2].mac "bits/sec sent" 54.399999999999999
scalar RipNetworkC.router1.eth[2].mac "bits/sec rcvd" 44.799999999999997
scalar RipNetworkC.router1.eth[2].mac "rx channel idle (%)" 99.999952640000004
scalar RipNetworkC.router1.eth[2].mac "rx channel utilization (%)" 4.7360000000000001e-05
scalar RipNetworkC.router1.eth[2].mac rxPausePkUnits:count 0
scalar RipNetworkC.router1.eth[2].mac rxPausePkUnits:sum 0
scalar RipNetworkC.router1.eth[2].mac txPausePkUnits:count 0
scalar RipNetworkC.router1.eth[2].mac txPausePkUnits:sum 0
scalar RipNetworkC.router1.eth[2].mac rxPkOk:count 8
scalar RipNetworkC.router1.eth[2].mac rxPkOk:sum(packetBytes) 1120
scalar RipNetworkC.router1.eth[2].mac txPk:count 10
scalar RipNetworkC.router1.eth[2].mac txPk:sum(packetBytes) 1360
scalar RipNetworkC.router1.eth[2].mac packetReceivedFromUpper:count 10
scalar RipNetworkC.router1.eth[2].mac packetReceivedFromUpper:sum(packetBytes) 1360
scalar RipNetworkC.router1.eth[2].mac passedUpPk:count 8
scalar RipNetworkC.router1.eth[2].mac passedUpPk:sum(packetBytes) 1120
scalar RipNetworkC.router1.eth[2].mac packetDropIncorrectlyReceived:count 0
scalar RipNetworkC.router1.eth[2].mac packetDropIncorrectlyReceived:sum(packetBytes) 0
scalar RipNetworkC.router1.eth[2].mac packetDropInterfaceDown:count 0
scalar RipNetworkC.router1.eth[2].mac packetDropInterfaceDown:sum(packetBytes) 0
scalar RipNetworkC.router1.eth[2].mac packetDropNotAddressedToUs:count 0
scalar RipNetworkC.router1.eth[2].mac packetDropNotAddressedToUs:sum(packetBytes) 0
scalar RipNetworkC.router1.eth[2] packetDropInterfaceDown:count 0
scalar RipNetworkC.router1.eth[2] packetDropInterfaceDown:sum(packetBytes) 0
scalar RipNetworkC.router1.eth[2] packetDropNoCarrier:count 0
scalar RipNetworkC.router1.eth[2] packetDropNoCarrier:sum(packetBytes) 0
scalar RipNetworkC.router1.ipv4.ip packetDropAddressResolutionFailed:count 0
scalar RipNetworkC.router1.ipv4.ip packetDropAddressResolutionFailed:sum(packetBytes) 0
scalar RipNetworkC.router1.ipv4.ip packetDropHopLimitReached:count 0
scalar RipNetworkC.router1.ipv4.ip packetDropHopLimitReached:sum(packetBytes) 0
scalar RipNetworkC.router1.ipv4.ip packetDropForwardingDisabled:count 0
scalar RipNetworkC.router1.ipv4.ip packetDropForwardingDisabled:sum(packetBytes) 0
scalar RipNetworkC.router1.ipv4.ip packetDropLifetimeExpired:count 0
scalar RipNetworkC.router1.ipv4.ip packetDropLifetimeExpired:sum(packetBytes) 0
scalar RipNetworkC.router1.ipv4.ip packetDropNoInterfaceFound:count 0
scalar RipNetworkC.router1.ipv4.ip packetDropNoInterfaceFound:sum(packetBytes) 0
scalar RipNetworkC.router1.ipv4.ip packetDropNoRouteFound:count 0
scalar RipNetworkC.router1.ipv4.ip packetDropNoRouteFound:sum(packetBytes) 0
scalar RipNetworkC.router1.ipv4.ip packetDropUndefined:count 0
scalar RipNetworkC.router1.ipv4.ip packetDropUndefined:sum(packetBytes) 0
scalar RipNetworkC.router1.udp packetReceived:count 16
scalar RipNetworkC.router1.udp packetReceived:sum(packetBytes) 1512
scalar RipNetworkC.router1.udp packetSent:count 24
scalar RipNetworkC.router1.udp packetSent:sum(packetBytes) 1908
scalar RipNetworkC.router1.udp passedUpPk:count 16
scalar RipNetworkC.router1.udp droppedPkWrongPort:count 0
scalar RipNetworkC.router1.udp droppedPkBadChecksum:count 0
scalar RipNetworkC.router1.rip numRoutes:last 7
scalar RipNetworkC.router1.rip badResponse:count 0
scalar RipNetworkC.router1.rip rcvdResponse:count 15
scalar RipNetworkC.router1.rip sentUpdate:count 21
scalar RipNetworkC.router1.rip sentRequest:count 3
scalar RipNetworkC.host3.ethernet pauseSent:count 0
scalar RipNetworkC.host3.ethernet pauseSent:sum 0
scalar RipNetworkC.host3.ethernet decapPk:count 4
scalar RipNetworkC.host3.ethernet decapPk:sum(packetBytes) 408
scalar RipNetworkC.host3.ethernet encapPk:count 0
scalar RipNetworkC.host3.ethernet encapPk:sum(packetBytes) 0
scalar RipNetworkC.host3.lo[0].lo rcvdPkFromHl:count 0
scalar RipNetworkC.host3.lo[0].lo rcvdPkFromHl:sum(packetBytes) 0
scalar RipNetworkC.host3.lo[0].lo passedUpPk:count 0
scalar RipNetworkC.host3.lo[0].lo passedUpPk:sum(packetBytes) 0
scalar RipNetworkC.host3.lo[0] packetDropInterfaceDown:count 0
scalar RipNetworkC.host3.lo[0] packetDropInterfaceDown:sum(packetBytes) 0
scalar RipNetworkC.host3.lo[0] packetDropNoCarrier:count 0
scalar RipNetworkC.host3.lo[0] packetDropNoCarrier:sum(packetBytes) 0
scalar RipNetworkC.host3.eth[0].queue queueLength:last 0
scalar RipNetworkC.host3.eth[0].queue queueLength:max 0
scalar RipNetworkC.host3.eth[0].queue queueLength:timeavg 0
scalar RipNetworkC.host3.eth[0].queue queueBitLength:last 0
scalar RipNetworkC.host3.eth[0].queue queueBitLength:max 0
scalar RipNetworkC.host3.eth[0].queue queueBitLength:timeavg 0
scalar RipNetworkC.host3.eth[0].queue outgoingPackets:count 0
scalar RipNetworkC.host3.eth[0].queue outgoingPacketLengths:sum 0
scalar RipNetworkC.host3.eth[0].queue incomingPackets:count 0
scalar RipNetworkC.host3.eth[0].queue incomingPacketLengths:sum 0
scalar RipNetworkC.host3.eth[0].queue droppedPacketsQueueOverflow:count 0
scalar RipNetworkC.host3.eth[0].queue droppedPacketLengthsQueueOverflow:sum 0
scalar RipNetworkC.host3.eth[0].mac "simulated time" 200
scalar RipNetworkC.host3.eth[0].mac full-duplex 1
scalar RipNetworkC.host3.eth[0].mac "frames/sec sent" 0
scalar RipNetworkC.host3.eth[0].mac "frames/sec rcvd" 0.02
scalar RipNetworkC.host3.eth[0].mac "bits/sec sent" 0
scalar RipNetworkC.host3.eth[0].mac "bits/sec rcvd" 19.199999999999999
scalar RipNetworkC.host3.eth[0].mac "rx channel idle (%)" 99.999979520000011
scalar RipNetworkC.host3.eth[0].mac "rx channel utilization (%)" 2.048e-05
scalar RipNetworkC.host3.eth[0].mac rxPausePkUnits:count 0
scalar RipNetworkC.host3.eth[0].mac rxPausePkUnits:sum 0
scalar RipNetworkC.host3.eth[0].mac txPausePkUnits:count 0
scalar RipNetworkC.host3.eth[0].mac txPausePkUnits:sum 0
scalar RipNetworkC.host3.eth[0].mac rxPkOk:count 4
scalar RipNetworkC.host3.eth[0].mac rxPkOk:sum(packetBytes) 480
scalar RipNetworkC.host3.eth[0].mac txPk:count 0
scalar RipNetworkC.host3.eth[0].mac txPk:sum(packetBytes) 0
scalar RipNetworkC.host3.eth[0].mac packetReceivedFromUpper:count 0
scalar RipNetworkC.host3.eth[0].mac packetReceivedFromUpper:sum(packetBytes) 0
scalar RipNetworkC.host3.eth[0].mac passedUpPk:count 4
scalar RipNetworkC.host3.eth[0].mac passedUpPk:sum(packetBytes) 480
scalar RipNetworkC.host3.eth[0].mac packetDropIncorrectlyReceived:count 0
scalar RipNetworkC.host3.eth[0].mac packetDropIncorrectlyReceived:sum(packetBytes) 0
scalar RipNetworkC.host3.eth[0].mac packetDropInterfaceDown:count 0
scalar RipNetworkC.host3.eth[0].mac packetDropInterfaceDown:sum(packetBytes) 0
scalar RipNetworkC.host3.eth[0].mac packetDropNotAddressedToUs:count 0
scalar RipNetworkC.host3.eth[0].mac packetDropNotAddressedToUs:sum(packetBytes) 0
scalar RipNetworkC.host3.eth[0] packetDropInterfaceDown:count 0
scalar RipNetworkC.host3.eth[0] packetDropInterfaceDown:sum(packetBytes) 0
scalar RipNetworkC.host3.eth[0] packetDropNoCarrier:count 0
scalar RipNetworkC.host3.eth[0] packetDropNoCarrier:sum(packetBytes) 0
scalar RipNetworkC.host3.ipv4.ip packetDropAddressResolutionFailed:count 0
scalar RipNetworkC.host3.ipv4.ip packetDropAddressResolutionFailed:sum(packetBytes) 0
scalar RipNetworkC.host3.ipv4.ip packetDropHopLimitReached:count 0
scalar RipNetworkC.host3.ipv4.ip packetDropHopLimitReached:sum(packetBytes) 0
scalar RipNetworkC.host3.ipv4.ip packetDropForwardingDisabled:count 0
scalar RipNetworkC.host3.ipv4.ip packetDropForwardingDisabled:sum(packetBytes) 0
scalar RipNetworkC.host3.ipv4.ip packetDropLifetimeExpired:count 0
scalar RipNetworkC.host3.ipv4.ip packetDropLifetimeExpired:sum(packetBytes) 0
scalar RipNetworkC.host3.ipv4.ip packetDropNoInterfaceFound:count 0
scalar RipNetworkC.host3.ipv4.ip packetDropNoInterfaceFound:sum(packetBytes) 0
scalar RipNetworkC.host3.ipv4.ip packetDropNoRouteFound:count 0
scalar RipNetworkC.host3.ipv4.ip packetDropNoRouteFound:sum(packetBytes) 0
scalar RipNetworkC.host3.ipv4.ip packetDropUndefined:count 0
scalar RipNetworkC.host3.ipv4.ip packetDropUndefined:sum(packetBytes) 0
scalar RipNetworkC.host3.udp packetReceived:count 0
scalar RipNetworkC.host3.udp packetReceived:sum(packetBytes) 0
scalar RipNetworkC.host3.udp packetSent:count 0
scalar RipNetworkC.host3.udp packetSent:sum(packetBytes) 0
scalar RipNetworkC.host3.udp passedUpPk:count 0
scalar RipNetworkC.host3.udp droppedPkWrongPort:count 0
scalar RipNetworkC.host3.udp droppedPkBadChecksum:count 0
scalar RipNetworkC.host4.ethernet pauseSent:count 0
scalar RipNetworkC.host4.ethernet pauseSent:sum 0
scalar RipNetworkC.host4.ethernet decapPk:count 4
scalar RipNetworkC.host4.ethernet decapPk:sum(packetBytes) 408
scalar RipNetworkC.host4.ethernet encapPk:count 0
scalar RipNetworkC.host4.ethernet encapPk:sum(packetBytes) 0
scalar RipNetworkC.host4.lo[0].lo rcvdPkFromHl:count 0
scalar RipNetworkC.host4.lo[0].lo rcvdPkFromHl:sum(packetBytes) 0
scalar RipNetworkC.host4.lo[0].lo passedUpPk:count 0
scalar RipNetworkC.host4.lo[0].lo passedUpPk:sum(packetBytes) 0
scalar RipNetworkC.host4.lo[0] packetDropInterfaceDown:count 0
scalar RipNetworkC.host4.lo[0] packetDropInterfaceDown:sum(packetBytes) 0
scalar RipNetworkC.host4.lo[0] packetDropNoCarrier:count 0
scalar RipNetworkC.host4.lo[0] packetDropNoCarrier:sum(packetBytes) 0
scalar RipNetworkC.host4.eth[0].queue queueLength:last 0
scalar RipNetworkC.host4.eth[0].queue queueLength:max 0
scalar RipNetworkC.host4.eth[0].queue queueLength:timeavg 0
scalar RipNetworkC.host4.eth[0].queue queueBitLength:last 0
scalar RipNetworkC.host4.eth[0].queue queueBitLength:max 0
scalar RipNetworkC.host4.eth[0].queue queueBitLength:timeavg 0
scalar RipNetworkC.host4.eth[0].queue outgoingPackets:count 0
scalar RipNetworkC.host4.eth[0].queue outgoingPacketLengths:sum 0
scalar RipNetworkC.host4.eth[0].queue incomingPackets:count 0
scalar RipNetworkC.host4.eth[0].queue incomingPacketLengths:sum 0
scalar RipNetworkC.host4.eth[0].queue droppedPacketsQueueOverflow:count 0
scalar RipNetworkC.host4.eth[0].queue droppedPacketLengthsQueueOverflow:sum 0
scalar RipNetworkC.host4.eth[0].mac "simulated time" 200
scalar RipNetworkC.host4.eth[0].mac full-duplex 1
scalar RipNetworkC.host4.eth[0].mac "frames/sec sent" 0
scalar RipNetworkC.host4.eth[0].mac "frames/sec rcvd" 0.02
scalar RipNetworkC.host4.eth[0].mac "bits/sec sent" 0
scalar RipNetworkC.host4.eth[0].mac "bits/sec rcvd" 19.199999999999999
scalar RipNetworkC.host4.eth[0].mac "rx channel idle (%)" 99.999979520000011
scalar RipNetworkC.host4.eth[0].mac "rx channel utilization (%)" 2.048e-05
scalar RipNetworkC.host4.eth[0].mac rxPausePkUnits:count 0
scalar RipNetworkC.host4.eth[0].mac rxPausePkUnits:sum 0
scalar RipNetworkC.host4.eth[0].mac txPausePkUnits:count 0
scalar RipNetworkC.host4.eth[0].mac txPausePkUnits:sum 0
scalar RipNetworkC.host4.eth[0].mac rxPkOk:count 4
scalar RipNetworkC.host4.eth[0].mac rxPkOk:sum(packetBytes) 480
scalar RipNetworkC.host4.eth[0].mac txPk:count 0
scalar RipNetworkC.host4.eth[0].mac txPk:sum(packetBytes) 0
scalar RipNetworkC.host4.eth[0].mac packetReceivedFromUpper:count 0
scalar RipNetworkC.host4.eth[0].mac packetReceivedFromUpper:sum(packetBytes) 0
scalar RipNetworkC.host4.eth[0].mac passedUpPk:count 4
scalar RipNetworkC.host4.eth[0].mac passedUpPk:sum(packetBytes) 480
scalar RipNetworkC.host4.eth[0].mac packetDropIncorrectlyReceived:count 0
scalar RipNetworkC.host4.eth[0].mac packetDropIncorrectlyReceived:sum(packetBytes) 0
scalar RipNetworkC.host4.eth[0].mac packetDropInterfaceDown:count 0
scalar RipNetworkC.host4.eth[0].mac packetDropInterfaceDown:sum(packetBytes) 0
scalar RipNetworkC.host4.eth[0].mac packetDropNotAddressedToUs:count 0
scalar RipNetworkC.host4.eth[0].mac packetDropNotAddressedToUs:sum(packetBytes) 0
scalar RipNetworkC.host4.eth[0] packetDropInterfaceDown:count 0
scalar RipNetworkC.host4.eth[0] packetDropInterfaceDown:sum(packetBytes) 0
scalar RipNetworkC.host4.eth[0] packetDropNoCarrier:count 0
scalar RipNetworkC.host4.eth[0] packetDropNoCarrier:sum(packetBytes) 0
scalar RipNetworkC.host4.ipv4.ip packetDropAddressResolutionFailed:count 0
scalar RipNetworkC.host4.ipv4.ip packetDropAddressResolutionFailed:sum(packetBytes) 0
scalar RipNetworkC.host4.ipv4.ip packetDropHopLimitReached:count 0
scalar RipNetworkC.host4.ipv4.ip packetDropHopLimitReached:sum(packetBytes) 0
scalar RipNetworkC.host4.ipv4.ip packetDropForwardingDisabled:count 0
scalar RipNetworkC.host4.ipv4.ip packetDropForwardingDisabled:sum(packetBytes) 0
scalar RipNetworkC.host4.ipv4.ip packetDropLifetimeExpired:count 0
scalar RipNetworkC.host4.ipv4.ip packetDropLifetimeExpired:sum(packetBytes) 0
scalar RipNetworkC.host4.ipv4.ip packetDropNoInterfaceFound:count 0
scalar RipNetworkC.host4.ipv4.ip packetDropNoInterfaceFound:sum(packetBytes) 0
scalar RipNetworkC.host4.ipv4.ip packetDropNoRouteFound:count 0
scalar RipNetworkC.host4.ipv4.ip packetDropNoRouteFound:sum(packetBytes) 0
scalar RipNetworkC.host4.ipv4.ip packetDropUndefined:count 0
scalar RipNetworkC.host4.ipv4.ip packetDropUndefined:sum(packetBytes) 0
scalar RipNetworkC.host4.udp packetReceived:count 0
scalar RipNetworkC.host4.udp packetReceived:sum(packetBytes) 0
scalar RipNetworkC.host4.udp packetSent:count 0
scalar RipNetworkC.host4.udp packetSent:sum(packetBytes) 0
scalar RipNetworkC.host4.udp passedUpPk:count 0
scalar RipNetworkC.host4.udp droppedPkWrongPort:count 0
scalar RipNetworkC.host4.udp droppedPkBadChecksum:count 0
scalar RipNetworkC.host5.ethernet pauseSent:count 0
scalar RipNetworkC.host5.ethernet pauseSent:sum 0
scalar RipNetworkC.host5.ethernet decapPk:count 4
scalar RipNetworkC.host5.ethernet decapPk:sum(packetBytes) 408
scalar RipNetworkC.host5.ethernet encapPk:count 0
scalar RipNetworkC.host5.ethernet encapPk:sum(packetBytes) 0
scalar RipNetworkC.host5.lo[0].lo rcvdPkFromHl:count 0
scalar RipNetworkC.host5.lo[0].lo rcvdPkFromHl:sum(packetBytes) 0
scalar RipNetworkC.host5.lo[0].lo passedUpPk:count 0
scalar RipNetworkC.host5.lo[0].lo passedUpPk:sum(packetBytes) 0
scalar RipNetworkC.host5.lo[0] packetDropInterfaceDown:count 0
scalar RipNetworkC.host5.lo[0] packetDropInterfaceDown:sum(packetBytes) 0
scalar RipNetworkC.host5.lo[0] packetDropNoCarrier:count 0
scalar RipNetworkC.host5.lo[0] packetDropNoCarrier:sum(packetBytes) 0
scalar RipNetworkC.host5.eth[0].queue queueLength:last 0
scalar RipNetworkC.host5.eth[0].queue queueLength:max 0
scalar RipNetworkC.host5.eth[0].queue queueLength:timeavg 0
scalar RipNetworkC.host5.eth[0].queue queueBitLength:last 0
scalar RipNetworkC.host5.eth[0].queue queueBitLength:max 0
scalar RipNetworkC.host5.eth[0].queue queueBitLength:timeavg 0
scalar RipNetworkC.host5.eth[0].queue outgoingPackets:count 0
scalar RipNetworkC.host5.eth[0].queue outgoingPacketLengths:sum 0
scalar RipNetworkC.host5.eth[0].queue incomingPackets:count 0
scalar RipNetworkC.host5.eth[0].queue incomingPacketLengths:sum 0
scalar RipNetworkC.host5.eth[0].queue droppedPacketsQueueOverflow:count 0
scalar RipNetworkC.host5.eth[0].queue droppedPacketLengthsQueueOverflow:sum 0
scalar RipNetworkC.host5.eth[0].mac "simulated time" 200
scalar RipNetworkC.host5.eth[0].mac full-duplex 1
scalar RipNetworkC.host5.eth[0].mac "frames/sec sent" 0
scalar RipNetworkC.host5.eth[0].mac "frames/sec rcvd" 0.02
scalar RipNetworkC.host5.eth[0].mac "bits/sec sent" 0
scalar RipNetworkC.host5.eth[0].mac "bits/sec rcvd" 19.199999999999999
scalar RipNetworkC.host5.eth[0].mac "rx channel idle (%)" 99.999979520000011
scalar RipNetworkC.host5.eth[0].mac "rx channel utilization (%)" 2.048e-05
scalar RipNetworkC.host5.eth[0].mac rxPausePkUnits:count 0
scalar RipNetworkC.host5.eth[0].mac rxPausePkUnits:sum 0
scalar RipNetworkC.host5.eth[0].mac txPausePkUnits:count 0
scalar RipNetworkC.host5.eth[0].mac txPausePkUnits:sum 0
scalar RipNetworkC.host5.eth[0].mac rxPkOk:count 4
scalar RipNetworkC.host5.eth[0].mac rxPkOk:sum(packetBytes) 480
scalar RipNetworkC.host5.eth[0].mac txPk:count 0
scalar RipNetworkC.host5.eth[0].mac txPk:sum(packetBytes) 0
scalar RipNetworkC.host5.eth[0].mac packetReceivedFromUpper:count 0
scalar RipNetworkC.host5.eth[0].mac packetReceivedFromUpper:sum(packetBytes) 0
scalar RipNetworkC.host5.eth[0].mac passedUpPk:count 4
scalar RipNetworkC.host5.eth[0].mac passedUpPk:sum(packetBytes) 480
scalar RipNetworkC.host5.eth[0].mac packetDropIncorrectlyReceived:count 0
scalar RipNetworkC.host5.eth[0].mac packetDropIncorrectlyReceived:sum(packetBytes) 0
scalar RipNetworkC.host5.eth[0].mac packetDropInterfaceDown:count 0
scalar RipNetworkC.host5.eth[0].mac packetDropInterfaceDown:sum(packetBytes) 0
scalar RipNetworkC.host5.eth[0].mac packetDropNotAddressedToUs:count 0
scalar RipNetworkC.host5.eth[0].mac packetDropNotAddressedToUs:sum(packetBytes) 0
scalar RipNetworkC.host5.eth[0] packetDropInterfaceDown:count 0
scalar RipNetworkC.host5.eth[0] packetDropInterfaceDown:sum(packetBytes) 0
scalar RipNetworkC.host5.eth[0] packetDropNoCarrier:count 0
scalar RipNetworkC.host5.eth[0] packetDropNoCarrier:sum(packetBytes) 0
scalar RipNetworkC.host5.ipv4.ip packetDropAddressResolutionFailed:count 0
scalar RipNetworkC.host5.ipv4.ip packetDropAddressResolutionFailed:sum(packetBytes) 0
scalar RipNetworkC.host5.ipv4.ip packetDropHopLimitReached:count 0
scalar RipNetworkC.host5.ipv4.ip packetDropHopLimitReached:sum(packetBytes) 0
scalar RipNetworkC.host5.ipv4.ip packetDropForwardingDisabled:count 0
scalar RipNetworkC.host5.ipv4.ip packetDropForwardingDisabled:sum(packetBytes) 0
scalar RipNetworkC.host5.ipv4.ip packetDropLifetimeExpired:count 0
scalar RipNetworkC.host5.ipv4.ip packetDropLifetimeExpired:sum(packetBytes) 0
scalar RipNetworkC.host5.ipv4.ip packetDropNoInterfaceFound:count 0
scalar RipNetworkC.host5.ipv4.ip packetDropNoInterfaceFound:sum(packetBytes) 0
scalar RipNetworkC.host5.ipv4.ip packetDropNoRouteFound:count 0
scalar RipNetworkC.host5.ipv4.ip packetDropNoRouteFound:sum(packetBytes) 0
scalar RipNetworkC.host5.ipv4.ip packetDropUndefined:count 0
scalar RipNetworkC.host5.ipv4.ip packetDropUndefined:sum(packetBytes) 0
scalar RipNetworkC.host5.udp packetReceived:count 0
scalar RipNetworkC.host5.udp packetReceived:sum(packetBytes) 0
scalar RipNetworkC.host5.udp packetSent:count 0
scalar RipNetworkC.host5.udp packetSent:sum(packetBytes) 0
scalar RipNetworkC.host5.udp passedUpPk:count 0
scalar RipNetworkC.host5.udp droppedPkWrongPort:count 0
scalar RipNetworkC.host5.udp droppedPkBadChecksum:count 0
scalar RipNetworkC.switch0.bridging "processed frames" 0
scalar RipNetworkC.switch0.bridging "discarded frames" 0
scalar RipNetworkC.switch0.bridging "number of received BPDUs from STP module" 0
scalar RipNetworkC.switch0.bridging "number of received frames from network (including BPDUs)" 10
scalar RipNetworkC.switch0.bridging "number of dropped frames (including BPDUs)" 0
scalar RipNetworkC.switch0.bridging "number of delivered BPDUs to the STP module" 0
scalar RipNetworkC.switch0.bridging "number of dispatched BPDU frames to the network" 0
scalar RipNetworkC.switch0.bridging "number of dispatched non-BDPU frames to the network" 0
scalar RipNetworkC.switch0.bridging packetDropped:count 0
scalar RipNetworkC.switch0.bridging packetDropped:sum(packetBytes) 0
scalar RipNetworkC.switch0.ethernet pauseSent:count 0
scalar RipNetworkC.switch0.ethernet pauseSent:sum 0
scalar RipNetworkC.switch0.ethernet decapPk:count 10
scalar RipNetworkC.switch0.ethernet decapPk:sum(packetBytes) 1200
scalar RipNetworkC.switch0.ethernet encapPk:count 30
scalar RipNetworkC.switch0.ethernet encapPk:sum(packetBytes) 3600
scalar RipNetworkC.switch0.eth[0].queue queueLength:last 0
scalar RipNetworkC.switch0.eth[0].queue queueLength:max 0
scalar RipNetworkC.switch0.eth[0].queue queueLength:timeavg 0
scalar RipNetworkC.switch0.eth[0].queue queueBitLength:last 0
scalar RipNetworkC.switch0.eth[0].queue queueBitLength:max 0
scalar RipNetworkC.switch0.eth[0].queue queueBitLength:timeavg 0
scalar RipNetworkC.switch0.eth[0].queue outgoingPackets:count 10
scalar RipNetworkC.switch0.eth[0].queue outgoingPacketLengths:sum 11040
scalar RipNetworkC.switch0.eth[0].queue incomingPackets:count 10
scalar RipNetworkC.switch0.eth[0].queue incomingPacketLengths:sum 11040
scalar RipNetworkC.switch0.eth[0].queue droppedPacketsQueueOverflow:count 0
scalar RipNetworkC.switch0.eth[0].queue droppedPacketLengthsQueueOverflow:sum 0
scalar RipNetworkC.switch0.eth[0].mac "simulated time" 200
scalar RipNetworkC.switch0.eth[0].mac full-duplex 1
scalar RipNetworkC.switch0.eth[0].mac "frames/sec sent" 0.050000000000000003
scalar RipNetworkC.switch0.eth[0].mac "frames/sec rcvd" 0
scalar RipNetworkC.switch0.eth[0].mac "bits/sec sent" 55.200000000000003
scalar RipNetworkC.switch0.eth[0].mac "bits/sec rcvd" 0
scalar RipNetworkC.switch0.eth[0].mac "rx channel idle (%)" 100
scalar RipNetworkC.switch0.eth[0].mac "rx channel utilization (%)" 0
scalar RipNetworkC.switch0.eth[0].mac rxPausePkUnits:count 0
scalar RipNetworkC.switch0.eth[0].mac rxPausePkUnits:sum 0
scalar RipNetworkC.switch0.eth[0].mac txPausePkUnits:count 0
scalar RipNetworkC.switch0.eth[0].mac txPausePkUnits:sum 0
scalar RipNetworkC.switch0.eth[0].mac rxPkOk:count 0
scalar RipNetworkC.switch0.eth[0].mac rxPkOk:sum(packetBytes) 0
scalar RipNetworkC.switch0.eth[0].mac txPk:count 10
scalar RipNetworkC.switch0.eth[0].mac txPk:sum(packetBytes) 1380
scalar RipNetworkC.switch0.eth[0].mac packetReceivedFromUpper:count 10
scalar RipNetworkC.switch0.eth[0].mac packetReceivedFromUpper:sum(packetBytes) 1380
scalar RipNetworkC.switch0.eth[0].mac passedUpPk:count 0
scalar RipNetworkC.switch0.eth[0].mac passedUpPk:sum(packetBytes) 0
scalar RipNetworkC.switch0.eth[0].mac packetDropIncorrectlyReceived:count 0
scalar RipNetworkC.switch0.eth[0].mac packetDropIncorrectlyReceived:sum(packetBytes) 0
scalar RipNetworkC.switch0.eth[0].mac packetDropInterfaceDown:count 0
scalar RipNetworkC.switch0.eth[0].mac packetDropInterfaceDown:sum(packetBytes) 0
scalar RipNetworkC.switch0.eth[0].mac packetDropNotAddressedToUs:count 0
scalar RipNetworkC.switch0.eth[0].mac packetDropNotAddressedToUs:sum(packetBytes) 0
scalar RipNetworkC.switch0.eth[0] packetDropInterfaceDown:count 0
scalar RipNetworkC.switch0.eth[0] packetDropInterfaceDown:sum(packetBytes) 0
scalar RipNetworkC.switch0.eth[0] packetDropNoCarrier:count 0
scalar RipNetworkC.switch0.eth[0] packetDropNoCarrier:sum(packetBytes) 0
scalar RipNetworkC.switch0.eth[1].queue queueLength:last 0
scalar RipNetworkC.switch0.eth[1].queue queueLength:max 0
scalar RipNetworkC.switch0.eth[1].queue queueLength:timeavg 0
scalar RipNetworkC.switch0.eth[1].queue queueBitLength:last 0
scalar RipNetworkC.switch0.eth[1].queue queueBitLength:max 0
scalar RipNetworkC.switch0.eth[1].queue queueBitLength:timeavg 0
scalar RipNetworkC.switch0.eth[1].queue outgoingPackets:count 10
scalar RipNetworkC.switch0.eth[1].queue outgoingPacketLengths:sum 11040
scalar RipNetworkC.switch0.eth[1].queue incomingPackets:count 10
scalar RipNetworkC.switch0.eth[1].queue incomingPacketLengths:sum 11040
scalar RipNetworkC.switch0.eth[1].queue droppedPacketsQueueOverflow:count 0
scalar RipNetworkC.switch0.eth[1].queue droppedPacketLengthsQueueOverflow:sum 0
scalar RipNetworkC.switch0.eth[1].mac "simulated time" 200
scalar RipNetworkC.switch0.eth[1].mac full-duplex 1
scalar RipNetworkC.switch0.eth[1].mac "frames/sec sent" 0.050000000000000003
scalar RipNetworkC.switch0.eth[1].mac "frames/sec rcvd" 0
scalar RipNetworkC.switch0.eth[1].mac "bits/sec sent" 55.200000000000003
scalar RipNetworkC.switch0.eth[1].mac "bits/sec rcvd" 0
scalar RipNetworkC.switch0.eth[1].mac "rx channel idle (%)" 100
scalar RipNetworkC.switch0.eth[1].mac "rx channel utilization (%)" 0
scalar RipNetworkC.switch0.eth[1].mac rxPausePkUnits:count 0
scalar RipNetworkC.switch0.eth[1].mac rxPausePkUnits:sum 0
scalar RipNetworkC.switch0.eth[1].mac txPausePkUnits:count 0
scalar RipNetworkC.switch0.eth[1].mac txPausePkUnits:sum 0
scalar RipNetworkC.switch0.eth[1].mac rxPkOk:count 0
scalar RipNetworkC.switch0.eth[1].mac rxPkOk:sum(packetBytes) 0
scalar RipNetworkC.switch0.eth[1].mac txPk:count 10
scalar RipNetworkC.switch0.eth[1].mac txPk:sum(packetBytes) 1380
scalar RipNetworkC.switch0.eth[1].mac packetReceivedFromUpper:count 10
scalar RipNetworkC.switch0.eth[1].mac packetReceivedFromUpper:sum(packetBytes) 1380
scalar RipNetworkC.switch0.eth[1].mac passedUpPk:count 0
scalar RipNetworkC.switch0.eth[1].mac passedUpPk:sum(packetBytes) 0
scalar RipNetworkC.switch0.eth[1].mac packetDropIncorrectlyReceived:count 0
scalar RipNetworkC.switch0.eth[1].mac packetDropIncorrectlyReceived:sum(packetBytes) 0
scalar RipNetworkC.switch0.eth[1].mac packetDropInterfaceDown:count 0
scalar RipNetworkC.switch0.eth[1].mac packetDropInterfaceDown:sum(packetBytes) 0
scalar RipNetworkC.switch0.eth[1].mac packetDropNotAddressedToUs:count 0
scalar RipNetworkC.switch0.eth[1].mac packetDropNotAddressedToUs:sum(packetBytes) 0
scalar RipNetworkC.switch0.eth[1] packetDropInterfaceDown:count 0
scalar RipNetworkC.switch0.eth[1] packetDropInterfaceDown:sum(packetBytes) 0
scalar RipNetworkC.switch0.eth[1] packetDropNoCarrier:count 0
scalar RipNetworkC.switch0.eth[1] packetDropNoCarrier:sum(packetBytes) 0
scalar RipNetworkC.switch0.eth[2].queue queueLength:last 0
scalar RipNetworkC.switch0.eth[2].queue queueLength:max 0
scalar RipNetworkC.switch0.eth[2].queue queueLength:timeavg 0
scalar RipNetworkC.switch0.eth[2].queue queueBitLength:last 0
scalar RipNetworkC.switch0.eth[2].queue queueBitLength:max 0
scalar RipNetworkC.switch0.eth[2].queue queueBitLength:timeavg 0
scalar RipNetworkC.switch0.eth[2].queue outgoingPackets:count 10
scalar RipNetworkC.switch0.eth[2].queue outgoingPacketLengths:sum 11040
scalar RipNetworkC.switch0.eth[2].queue incomingPackets:count 10
scalar RipNetworkC.switch0.eth[2].queue incomingPacketLengths:sum 11040
scalar RipNetworkC.switch0.eth[2].queue droppedPacketsQueueOverflow:count 0
scalar RipNetworkC.switch0.eth[2].queue droppedPacketLengthsQueueOverflow:sum 0
scalar RipNetworkC.switch0.eth[2].mac "simulated time" 200
scalar RipNetworkC.switch0.eth[2].mac full-duplex 1
scalar RipNetworkC.switch0.eth[2].mac "frames/sec sent" 0.050000000000000003
scalar RipNetworkC.switch0.eth[2].mac "frames/sec rcvd" 0
scalar RipNetworkC.switch0.eth[2].mac "bits/sec sent" 55.200000000000003
scalar RipNetworkC.switch0.eth[2].mac "bits/sec rcvd" 0
scalar RipNetworkC.switch0.eth[2].mac "rx channel idle (%)" 100
scalar RipNetworkC.switch0.eth[2].mac "rx channel utilization (%)" 0
scalar RipNetworkC.switch0.eth[2].mac rxPausePkUnits:count 0
scalar RipNetworkC.switch0.eth[2].mac rxPausePkUnits:sum 0
scalar RipNetworkC.switch0.eth[2].mac txPausePkUnits:count 0
scalar RipNetworkC.switch0.eth[2].mac txPausePkUnits:sum 0
scalar RipNetworkC.switch0.eth[2].mac rxPkOk:count 0
scalar RipNetworkC.switch0.eth[2].mac rxPkOk:sum(packetBytes) 0
scalar RipNetworkC.switch0.eth[2].mac txPk:count 10
scalar RipNetworkC.switch0.eth[2].mac txPk:sum(packetBytes) 1380
scalar RipNetworkC.switch0.eth[2].mac packetReceivedFromUpper:count 10
scalar RipNetworkC.switch0.eth[2].mac packetReceivedFromUpper:sum(packetBytes) 1380
scalar RipNetworkC.switch0.eth[2].mac passedUpPk:count 0
scalar RipNetworkC.switch0.eth[2].mac passedUpPk:sum(packetBytes) 0
scalar RipNetworkC.switch0.eth[2].mac packetDropIncorrectlyReceived:count 0
scalar RipNetworkC.switch0.eth[2].mac packetDropIncorrectlyReceived:sum(packetBytes) 0
scalar RipNetworkC.switch0.eth[2].mac packetDropInterfaceDown:count 0
scalar RipNetworkC.switch0.eth[2].mac packetDropInterfaceDown:sum(packetBytes) 0
scalar RipNetworkC.switch0.eth[2].mac packetDropNotAddressedToUs:count 0
scalar RipNetworkC.switch0.eth[2].mac packetDropNotAddressedToUs:sum(packetBytes) 0
scalar RipNetworkC.switch0.eth[2] packetDropInterfaceDown:count 0
scalar RipNetworkC.switch0.eth[2] packetDropInterfaceDown:sum(packetBytes) 0
scalar RipNetworkC.switch0.eth[2] packetDropNoCarrier:count 0
scalar RipNetworkC.switch0.eth[2] packetDropNoCarrier:sum(packetBytes) 0
scalar RipNetworkC.switch0.eth[3].queue queueLength:last 0
scalar RipNetworkC.switch0.eth[3].queue queueLength:max 0
scalar RipNetworkC.switch0.eth[3].queue queueLength:timeavg 0
scalar RipNetworkC.switch0.eth[3].queue queueBitLength:last 0
scalar RipNetworkC.switch0.eth[3].queue queueBitLength:max 0
scalar RipNetworkC.switch0.eth[3].queue queueBitLength:timeavg 0
scalar RipNetworkC.switch0.eth[3].queue outgoingPackets:count 0
scalar RipNetworkC.switch0.eth[3].queue outgoingPacketLengths:sum 0
scalar RipNetworkC.switch0.eth[3].queue incomingPackets:count 0
scalar RipNetworkC.switch0.eth[3].queue incomingPacketLengths:sum 0
scalar RipNetworkC.switch0.eth[3].queue droppedPacketsQueueOverflow:count 0
scalar RipNetworkC.switch0.eth[3].queue droppedPacketLengthsQueueOverflow:sum 0
scalar RipNetworkC.switch0.eth[3].mac "simulated time" 200
scalar RipNetworkC.switch0.eth[3].mac full-duplex 1
scalar RipNetworkC.switch0.eth[3].mac "frames/sec sent" 0
scalar RipNetworkC.switch0.eth[3].mac "frames/sec rcvd" 0.050000000000000003
scalar RipNetworkC.switch0.eth[3].mac "bits/sec sent" 0
scalar RipNetworkC.switch0.eth[3].mac "bits/sec rcvd" 55.200000000000003
scalar RipNetworkC.switch0.eth[3].mac "rx channel idle (%)" 99.9999416
scalar RipNetworkC.switch0.eth[3].mac "rx channel utilization (%)" 5.8400000000000003e-05
scalar RipNetworkC.switch0.eth[3].mac rxPausePkUnits:count 0
scalar RipNetworkC.switch0.eth[3].mac rxPausePkUnits:sum 0
scalar RipNetworkC.switch0.eth[3].mac txPausePkUnits:count 0
scalar RipNetworkC.switch0.eth[3].mac txPausePkUnits:sum 0
scalar RipNetworkC.switch0.eth[3].mac rxPkOk:count 10
scalar RipNetworkC.switch0.eth[3].mac rxPkOk:sum(packetBytes) 1380
scalar RipNetworkC.switch0.eth[3].mac txPk:count 0
scalar RipNetworkC.switch0.eth[3].mac txPk:sum(packetBytes) 0
scalar RipNetworkC.switch0.eth[3].mac packetReceivedFromUpper:count 0
scalar RipNetworkC.switch0.eth[3].mac packetReceivedFromUpper:sum(packetBytes) 0
scalar RipNetworkC.switch0.eth[3].mac passedUpPk:count 10
scalar RipNetworkC.switch0.eth[3].mac passedUpPk:sum(packetBytes) 1380
scalar RipNetworkC.switch0.eth[3].mac packetDropIncorrectlyReceived:count 0
scalar RipNetworkC.switch0.eth[3].mac packetDropIncorrectlyReceived:sum(packetBytes) 0
scalar RipNetworkC.switch0.eth[3].mac packetDropInterfaceDown:count 0
scalar RipNetworkC.switch0.eth[3].mac packetDropInterfaceDown:sum(packetBytes) 0
scalar RipNetworkC.switch0.eth[3].mac packetDropNotAddressedToUs:count 0
scalar RipNetworkC.switch0.eth[3].mac packetDropNotAddressedToUs:sum(packetBytes) 0
scalar RipNetworkC.switch0.eth[3] packetDropInterfaceDown:count 0
scalar RipNetworkC.switch0.eth[3] packetDropInterfaceDown:sum(packetBytes) 0
scalar RipNetworkC.switch0.eth[3] packetDropNoCarrier:count 0
scalar RipNetworkC.switch0.eth[3] packetDropNoCarrier:sum(packetBytes) 0
scalar RipNetworkC.switch1.bridging "processed frames" 0
scalar RipNetworkC.switch1.bridging "discarded frames" 0
scalar RipNetworkC.switch1.bridging "number of received BPDUs from STP module" 0
scalar RipNetworkC.switch1.bridging "number of received frames from network (including BPDUs)" 4
scalar RipNetworkC.switch1.bridging "number of dropped frames (including BPDUs)" 0
scalar RipNetworkC.switch1.bridging "number of delivered BPDUs to the STP module" 0
scalar RipNetworkC.switch1.bridging "number of dispatched BPDU frames to the network" 0
scalar RipNetworkC.switch1.bridging "number of dispatched non-BDPU frames to the network" 0
scalar RipNetworkC.switch1.bridging packetDropped:count 0
scalar RipNetworkC.switch1.bridging packetDropped:sum(packetBytes) 0
scalar RipNetworkC.switch1.ethernet pauseSent:count 0
scalar RipNetworkC.switch1.ethernet pauseSent:sum 0
scalar RipNetworkC.switch1.ethernet decapPk:count 4
scalar RipNetworkC.switch1.ethernet decapPk:sum(packetBytes) 408
scalar RipNetworkC.switch1.ethernet encapPk:count 12
scalar RipNetworkC.switch1.ethernet encapPk:sum(packetBytes) 1224
scalar RipNetworkC.switch1.eth[0].queue queueLength:last 0
scalar RipNetworkC.switch1.eth[0].queue queueLength:max 0
scalar RipNetworkC.switch1.eth[0].queue queueLength:timeavg 0
scalar RipNetworkC.switch1.eth[0].queue queueBitLength:last 0
scalar RipNetworkC.switch1.eth[0].queue queueBitLength:max 0
scalar RipNetworkC.switch1.eth[0].queue queueBitLength:timeavg 0
scalar RipNetworkC.switch1.eth[0].queue outgoingPackets:count 4
scalar RipNetworkC.switch1.eth[0].queue outgoingPacketLengths:sum 3840
scalar RipNetworkC.switch1.eth[0].queue incomingPackets:count 4
scalar RipNetworkC.switch1.eth[0].queue incomingPacketLengths:sum 3840
scalar RipNetworkC.switch1.eth[0].queue droppedPacketsQueueOverflow:count 0
scalar RipNetworkC.switch1.eth[0].queue droppedPacketLengthsQueueOverflow:sum 0
scalar RipNetworkC.switch1.eth[0].mac "simulated time" 200
scalar RipNetworkC.switch1.eth[0].mac full-duplex 1
scalar RipNetworkC.switch1.eth[0].mac "frames/sec sent" 0.02
scalar RipNetworkC.switch1.eth[0].mac "frames/sec rcvd" 0
scalar RipNetworkC.switch1.eth[0].mac "bits/sec sent" 19.199999999999999
scalar RipNetworkC.switch1.eth[0].mac "bits/sec rcvd" 0
scalar RipNetworkC.switch1.eth[0].mac "rx channel idle (%)" 100
scalar RipNetworkC.switch1.eth[0].mac "rx channel utilization (%)" 0
scalar RipNetworkC.switch1.eth[0].mac rxPausePkUnits:count 0
scalar RipNetworkC.switch1.eth[0].mac rxPausePkUnits:sum 0
scalar RipNetworkC.switch1.eth[0].mac txPausePkUnits:count 0
scalar RipNetworkC.switch1.eth[0].mac txPausePkUnits:sum 0
scalar RipNetworkC.switch1.eth[0].mac rxPkOk:count 0
scalar RipNetworkC.switch1.eth[0].mac rxPkOk:sum(packetBytes) 0
scalar RipNetworkC.switch1.eth[0].mac txPk:count 4
scalar RipNetworkC.switch1.eth[0].mac txPk:sum(packetBytes) 480
scalar RipNetworkC.switch1.eth[0].mac packetReceivedFromUpper:count 4
scalar RipNetworkC.switch1.eth[0].mac packetReceivedFromUpper:sum(packetBytes) 480
scalar RipNetworkC.switch1.eth[0].mac passedUpPk:count 0
scalar RipNetworkC.switch1.eth[0].mac passedUpPk:sum(packetBytes) 0
scalar RipNetworkC.switch1.eth[0].mac packetDropIncorrectlyReceived:count 0
scalar RipNetworkC.switch1.eth[0].mac packetDropIncorrectlyReceived:sum(packetBytes) 0
scalar RipNetworkC.switch1.eth[0].mac packetDropInterfaceDown:count 0
scalar RipNetworkC.switch1.eth[0].mac packetDropInterfaceDown:sum(packetBytes) 0
scalar RipNetworkC.switch1.eth[0].mac packetDropNotAddressedToUs:count 0
scalar RipNetworkC.switch1.eth[0].mac packetDropNotAddressedToUs:sum(packetBytes) 0
scalar RipNetworkC.switch1.eth[0] packetDropInterfaceDown:count 0
scalar RipNetworkC.switch1.eth[0] packetDropInterfaceDown:sum(packetBytes) 0
scalar RipNetworkC.switch1.eth[0] packetDropNoCarrier:count 0
scalar RipNetworkC.switch1.eth[0] packetDropNoCarrier:sum(packetBytes) 0
scalar RipNetworkC.switch1.eth[1].queue queueLength:last 0
scalar RipNetworkC.switch1.eth[1].queue queueLength:max 0
scalar RipNetworkC.switch1.eth[1].queue queueLength:timeavg 0
scalar RipNetworkC.switch1.eth[1].queue queueBitLength:last 0
scalar RipNetworkC.switch1.eth[1].queue queueBitLength:max 0
scalar RipNetworkC.switch1.eth[1].queue queueBitLength:timeavg 0
scalar RipNetworkC.switch1.eth[1].queue outgoingPackets:count 4
scalar RipNetworkC.switch1.eth[1].queue outgoingPacketLengths:sum 3840
scalar RipNetworkC.switch1.eth[1].queue incomingPackets:count 4
scalar RipNetworkC.switch1.eth[1].queue incomingPacketLengths:sum 3840
scalar RipNetworkC.switch1.eth[1].queue droppedPacketsQueueOverflow:count 0
scalar RipNetworkC.switch1.eth[1].queue droppedPacketLengthsQueueOverflow:sum 0
scalar RipNetworkC.switch1.eth[1].mac "simulated time" 200
scalar RipNetworkC.switch1.eth[1].mac full-duplex 1
scalar RipNetworkC.switch1.eth[1].mac "frames/sec sent" 0.02
scalar RipNetworkC.switch1.eth[1].mac "frames/sec rcvd" 0
scalar RipNetworkC.switch1.eth[1].mac "bits/sec sent" 19.199999999999999
scalar RipNetworkC.switch1.eth[1].mac "bits/sec rcvd" 0
scalar RipNetworkC.switch1.eth[1].mac "rx channel idle (%)" 100
scalar RipNetworkC.switch1.eth[1].mac "rx channel utilization (%)" 0
scalar RipNetworkC.switch1.eth[1].mac rxPausePkUnits:count 0
scalar RipNetworkC.switch1.eth[1].mac rxPausePkUnits:sum 0
scalar RipNetworkC.switch1.eth[1].mac txPausePkUnits:count 0
scalar RipNetworkC.switch1.eth[1].mac txPausePkUnits:sum 0
scalar RipNetworkC.switch1.eth[1].mac rxPkOk:count 0
scalar RipNetworkC.switch1.eth[1].mac rxPkOk:sum(packetBytes) 0
scalar RipNetworkC.switch1.eth[1].mac txPk:count 4
scalar RipNetworkC.switch1.eth[1].mac txPk:sum(packetBytes) 480
scalar RipNetworkC.switch1.eth[1].mac packetReceivedFromUpper:count 4
scalar RipNetworkC.switch1.eth[1].mac packetReceivedFromUpper:sum(packetBytes) 480
scalar RipNetworkC.switch1.eth[1].mac passedUpPk:count 0
scalar RipNetworkC.switch1.eth[1].mac passedUpPk:sum(packetBytes) 0
scalar RipNetworkC.switch1.eth[1].mac packetDropIncorrectlyReceived:count 0
scalar RipNetworkC.switch1.eth[1].mac packetDropIncorrectlyReceived:sum(packetBytes) 0
scalar RipNetworkC.switch1.eth[1].mac packetDropInterfaceDown:count 0
scalar RipNetworkC.switch1.eth[1].mac packetDropInterfaceDown:sum(packetBytes) 0
scalar RipNetworkC.switch1.eth[1].mac packetDropNotAddressedToUs:count 0
scalar RipNetworkC.switch1.eth[1].mac packetDropNotAddressedToUs:sum(packetBytes) 0
scalar RipNetworkC.switch1.eth[1] packetDropInterfaceDown:count 0
scalar RipNetworkC.switch1.eth[1] packetDropInterfaceDown:sum(packetBytes) 0
scalar RipNetworkC.switch1.eth[1] packetDropNoCarrier:count 0
scalar RipNetworkC.switch1.eth[1] packetDropNoCarrier:sum(packetBytes) 0
scalar RipNetworkC.switch1.eth[2].queue queueLength:last 0
scalar RipNetworkC.switch1.eth[2].queue queueLength:max 0
scalar RipNetworkC.switch1.eth[2].queue queueLength:timeavg 0
scalar RipNetworkC.switch1.eth[2].queue queueBitLength:last 0
scalar RipNetworkC.switch1.eth[2].queue queueBitLength:max 0
scalar RipNetworkC.switch1.eth[2].queue queueBitLength:timeavg 0
scalar RipNetworkC.switch1.eth[2].queue outgoingPackets:count 4
scalar RipNetworkC.switch1.eth[2].queue outgoingPacketLengths:sum 3840
scalar RipNetworkC.switch1.eth[2].queue incomingPackets:count 4
scalar RipNetworkC.switch1.eth[2].queue incomingPacketLengths:sum 3840
scalar RipNetworkC.switch1.eth[2].queue droppedPacketsQueueOverflow:count 0
scalar RipNetworkC.switch1.eth[2].queue droppedPacketLengthsQueueOverflow:sum 0
scalar RipNetworkC.switch1.eth[2].mac "simulated time" 200
scalar RipNetworkC.switch1.eth[2].mac full-duplex 1
scalar RipNetworkC.switch1.eth[2].mac "frames/sec sent" 0.02
scalar RipNetworkC.switch1.eth[2].mac "frames/sec rcvd" 0
scalar RipNetworkC.switch1.eth[2].mac "bits/sec sent" 19.199999999999999
scalar RipNetworkC.switch1.eth[2].mac "bits/sec rcvd" 0
scalar RipNetworkC.switch1.eth[2].mac "rx channel idle (%)" 100
scalar RipNetworkC.switch1.eth[2].mac "rx channel utilization (%)" 0
scalar RipNetworkC.switch1.eth[2].mac rxPausePkUnits:count 0
scalar RipNetworkC.switch1.eth[2].mac rxPausePkUnits:sum 0
scalar RipNetworkC.switch1.eth[2].mac txPausePkUnits:count 0
scalar RipNetworkC.switch1.eth[2].mac txPausePkUnits:sum 0
scalar RipNetworkC.switch1.eth[2].mac rxPkOk:count 0
scalar RipNetworkC.switch1.eth[2].mac rxPkOk:sum(packetBytes) 0
scalar RipNetworkC.switch1.eth[2].mac txPk:count 4
scalar RipNetworkC.switch1.eth[2].mac txPk:sum(packetBytes) 480
scalar RipNetworkC.switch1.eth[2].mac packetReceivedFromUpper:count 4
scalar RipNetworkC.switch1.eth[2].mac packetReceivedFromUpper:sum(packetBytes) 480
scalar RipNetworkC.switch1.eth[2].mac passedUpPk:count 0
scalar RipNetworkC.switch1.eth[2].mac passedUpPk:sum(packetBytes) 0
scalar RipNetworkC.switch1.eth[2].mac packetDropIncorrectlyReceived:count 0
scalar RipNetworkC.switch1.eth[2].mac packetDropIncorrectlyReceived:sum(packetBytes) 0
scalar RipNetworkC.switch1.eth[2].mac packetDropInterfaceDown:count 0
scalar RipNetworkC.switch1.eth[2].mac packetDropInterfaceDown:sum(packetBytes) 0
scalar RipNetworkC.switch1.eth[2].mac packetDropNotAddressedToUs:count 0
scalar RipNetworkC.switch1.eth[2].mac packetDropNotAddressedToUs:sum(packetBytes) 0
scalar RipNetworkC.switch1.eth[2] packetDropInterfaceDown:count 0
scalar RipNetworkC.switch1.eth[2] packetDropInterfaceDown:sum(packetBytes) 0
scalar RipNetworkC.switch1.eth[2] packetDropNoCarrier:count 0
scalar RipNetworkC.switch1.eth[2] packetDropNoCarrier:sum(packetBytes) 0
scalar RipNetworkC.switch1.eth[3].queue queueLength:last 0
scalar RipNetworkC.switch1.eth[3].queue queueLength:max 0
scalar RipNetworkC.switch1.eth[3].queue queueLength:timeavg 0
scalar RipNetworkC.switch1.eth[3].queue queueBitLength:last 0
scalar RipNetworkC.switch1.eth[3].queue queueBitLength:max 0
scalar RipNetworkC.switch1.eth[3].queue queueBitLength:timeavg 0
scalar RipNetworkC.switch1.eth[3].queue outgoingPackets:count 0
scalar RipNetworkC.switch1.eth[3].queue outgoingPacketLengths:sum 0
scalar RipNetworkC.switch1.eth[3].queue incomingPackets:count 0
scalar RipNetworkC.switch1.eth[3].queue incomingPacketLengths:sum 0
scalar RipNetworkC.switch1.eth[3].queue droppedPacketsQueueOverflow:count 0
scalar RipNetworkC.switch1.eth[3].queue droppedPacketLengthsQueueOverflow:sum 0
scalar RipNetworkC.switch1.eth[3].mac "simulated time" 200
scalar RipNetworkC.switch1.eth[3].mac full-duplex 1
scalar RipNetworkC.switch1.eth[3].mac "frames/sec sent" 0
scalar RipNetworkC.switch1.eth[3].mac "frames/sec rcvd" 0.02
scalar RipNetworkC.switch1.eth[3].mac "bits/sec sent" 0
scalar RipNetworkC.switch1.eth[3].mac "bits/sec rcvd" 19.199999999999999
scalar RipNetworkC.switch1.eth[3].mac "rx channel idle (%)" 99.999979520000011
scalar RipNetworkC.switch1.eth[3].mac "rx channel utilization (%)" 2.048e-05
scalar RipNetworkC.switch1.eth[3].mac rxPausePkUnits:count 0
scalar RipNetworkC.switch1.eth[3].mac rxPausePkUnits:sum 0
scalar RipNetworkC.switch1.eth[3].mac txPausePkUnits:count 0
scalar RipNetworkC.switch1.eth[3].mac txPausePkUnits:sum 0
scalar RipNetworkC.switch1.eth[3].mac rxPkOk:count 4
scalar RipNetworkC.switch1.eth[3].mac rxPkOk:sum(packetBytes) 480
scalar RipNetworkC.switch1.eth[3].mac txPk:count 0
scalar RipNetworkC.switch1.eth[3].mac txPk:sum(packetBytes) 0
scalar RipNetworkC.switch1.eth[3].mac packetReceivedFromUpper:count 0
scalar RipNetworkC.switch1.eth[3].mac packetReceivedFromUpper:sum(packetBytes) 0
scalar RipNetworkC.switch1.eth[3].mac passedUpPk:count 4
scalar RipNetworkC.switch1.eth[3].mac passedUpPk:sum(packetBytes) 480
scalar RipNetworkC.switch1.eth[3].mac packetDropIncorrectlyReceived:count 0
scalar RipNetworkC.switch1.eth[3].mac packetDropIncorrectlyReceived:sum(packetBytes) 0
scalar RipNetworkC.switch1.eth[3].mac packetDropInterfaceDown:count 0
scalar RipNetworkC.switch1.eth[3].mac packetDropInterfaceDown:sum(packetBytes) 0
scalar RipNetworkC.switch1.eth[3].mac packetDropNotAddressedToUs:count 0
scalar RipNetworkC.switch1.eth[3].mac packetDropNotAddressedToUs:sum(packetBytes) 0
scalar RipNetworkC.switch1.eth[3] packetDropInterfaceDown:count 0
scalar RipNetworkC.switch1.eth[3] packetDropInterfaceDown:sum(packetBytes) 0
scalar RipNetworkC.switch1.eth[3] packetDropNoCarrier:count 0
scalar RipNetworkC.switch1.eth[3] packetDropNoCarrier:sum(packetBytes) 0
scalar RipNetworkC.router2.ethernet pauseSent:count 0
scalar RipNetworkC.router2.ethernet pauseSent:sum 0
scalar RipNetworkC.router2.ethernet decapPk:count 20
[...]
scalar RipNetworkC.router3.eth[2].mac rxPkOk:vector(packetBytes):sum 1360
scalar RipNetworkC.router3.eth[2].mac rxPkOk:vector(packetBytes):sumweights 10
scalar RipNetworkC.router3.eth[2].mac rxPkOk:vector(packetBytes):mean 136
scalar RipNetworkC.router3.eth[2].mac rxPkOk:vector(packetBytes):stddev 31.340424729448422
scalar RipNetworkC.router3.eth[2].mac rxPkOk:vector(packetBytes):min 70
scalar RipNetworkC.router3.eth[2].mac rxPkOk:vector(packetBytes):max 170
scalar RipNetworkC.router3.eth[2].mac rxPkOk:vector(packetBytes):starttime 0.59285090638900007
scalar RipNetworkC.router3.eth[2].mac rxPkOk:vector(packetBytes):endtime 180.59285730638902
scalar RipNetworkC.router3.eth[2].mac passedUpPk:vector(packetBytes):count 10
scalar RipNetworkC.router3.eth[2].mac passedUpPk:vector(packetBytes):sum 1360
scalar RipNetworkC.router3.eth[2].mac passedUpPk:vector(packetBytes):sumweights 10
scalar RipNetworkC.router3.eth[2].mac passedUpPk:vector(packetBytes):mean 136
scalar RipNetworkC.router3.eth[2].mac passedUpPk:vector(packetBytes):stddev 31.340424729448422
scalar RipNetworkC.router3.eth[2].mac passedUpPk:vector(packetBytes):min 70
scalar RipNetworkC.router3.eth[2].mac passedUpPk:vector(packetBytes):max 170
scalar RipNetworkC.router3.eth[2].mac passedUpPk:vector(packetBytes):starttime 0.59285090638900007
scalar RipNetworkC.router3.eth[2].mac passedUpPk:vector(packetBytes):endtime 180.59285730638902
scalar RipNetworkC.router3.eth[2].mac txPausePkUnits:vector:count 0
scalar RipNetworkC.router3.eth[2].mac txPausePkUnits:vector:sum 0
scalar RipNetworkC.router3.eth[2].mac txPausePkUnits:vector:sumweights 0
scalar RipNetworkC.router3.eth[2].mac txPausePkUnits:vector:mean -nan
scalar RipNetworkC.router3.eth[2].mac txPausePkUnits:vector:stddev nan
scalar RipNetworkC.router3.eth[2].mac txPausePkUnits:vector:min inf
scalar RipNetworkC.router3.eth[2].mac txPausePkUnits:vector:max -inf
scalar RipNetworkC.router3.eth[2].mac txPausePkUnits:vector:starttime nan
scalar RipNetworkC.router3.eth[2].mac txPausePkUnits:vector:endtime nan
scalar RipNetworkC.router3.eth[2].mac rxPausePkUnits:vector:count 0
scalar RipNetworkC.router3.eth[2].mac rxPausePkUnits:vector:sum 0
scalar RipNetworkC.router3.eth[2].mac rxPausePkUnits:vector:sumweights 0
scalar RipNetworkC.router3.eth[2].mac rxPausePkUnits:vector:mean -nan
scalar RipNetworkC.router3.eth[2].mac rxPausePkUnits:vector:stddev nan
scalar RipNetworkC.router3.eth[2].mac rxPausePkUnits:vector:min inf
scalar RipNetworkC.router3.eth[2].mac rxPausePkUnits:vector:max -inf
scalar RipNetworkC.router3.eth[2].mac rxPausePkUnits:vector:starttime nan
scalar RipNetworkC.router3.eth[2].mac rxPausePkUnits:vector:endtime nan
scalar RipNetworkC.router3.eth[2].mac packetReceivedFromUpper:vector(packetBytes):count 8
scalar RipNetworkC.router3.eth[2].mac packetReceivedFromUpper:vector(packetBytes):sum 1120
scalar RipNetworkC.router3.eth[2].mac packetReceivedFromUpper:vector(packetBytes):sumweights 8
scalar RipNetworkC.router3.eth[2].mac packetReceivedFromUpper:vector(packetBytes):mean 140
scalar RipNetworkC.router3.eth[2].mac packetReceivedFromUpper:vector(packetBytes):stddev 28.284271247461902
scalar RipNetworkC.router3.eth[2].mac packetReceivedFromUpper:vector(packetBytes):min 70
scalar RipNetworkC.router3.eth[2].mac packetReceivedFromUpper:vector(packetBytes):max 150
scalar RipNetworkC.router3.eth[2].mac packetReceivedFromUpper:vector(packetBytes):starttime 0.84426574409000021
scalar RipNetworkC.router3.eth[2].mac packetReceivedFromUpper:vector(packetBytes):endtime 180.84426574409005
scalar RipNetworkC.router3.eth[2].mac packetDropIncorrectlyReceived:vector(packetBytes):count 0
scalar RipNetworkC.router3.eth[2].mac packetDropIncorrectlyReceived:vector(packetBytes):sum 0
scalar RipNetworkC.router3.eth[2].mac packetDropIncorrectlyReceived:vector(packetBytes):sumweights 0
scalar RipNetworkC.router3.eth[2].mac packetDropIncorrectlyReceived:vector(packetBytes):mean -nan
scalar RipNetworkC.router3.eth[2].mac packetDropIncorrectlyReceived:vector(packetBytes):stddev nan
scalar RipNetworkC.router3.eth[2].mac packetDropIncorrectlyReceived:vector(packetBytes):min inf
scalar RipNetworkC.router3.eth[2].mac packetDropIncorrectlyReceived:vector(packetBytes):max -inf
scalar RipNetworkC.router3.eth[2].mac packetDropIncorrectlyReceived:vector(packetBytes):starttime nan
scalar RipNetworkC.router3.eth[2].mac packetDropIncorrectlyReceived:vector(packetBytes):endtime nan
scalar RipNetworkC.router3.eth[2].mac packetDropInterfaceDown:vector(packetBytes):count 0
scalar RipNetworkC.router3.eth[2].mac packetDropInterfaceDown:vector(packetBytes):sum 0
scalar RipNetworkC.router3.eth[2].mac packetDropInterfaceDown:vector(packetBytes):sumweights 0
scalar RipNetworkC.router3.eth[2].mac packetDropInterfaceDown:vector(packetBytes):mean -nan
scalar RipNetworkC.router3.eth[2].mac packetDropInterfaceDown:vector(packetBytes):stddev nan
scalar RipNetworkC.router3.eth[2].mac packetDropInterfaceDown:vector(packetBytes):min inf
scalar RipNetworkC.router3.eth[2].mac packetDropInterfaceDown:vector(packetBytes):max -inf
scalar RipNetworkC.router3.eth[2].mac packetDropInterfaceDown:vector(packetBytes):starttime nan
scalar RipNetworkC.router3.eth[2].mac packetDropInterfaceDown:vector(packetBytes):endtime nan
scalar RipNetworkC.router3.eth[2].mac packetDropNotAddressedToUs:vector(packetBytes):count 0
scalar RipNetworkC.router3.eth[2].mac packetDropNotAddressedToUs:vector(packetBytes):sum 0
scalar RipNetworkC.router3.eth[2].mac packetDropNotAddressedToUs:vector(packetBytes):sumweights 0
scalar RipNetworkC.router3.eth[2].mac packetDropNotAddressedToUs:vector(packetBytes):mean -nan
scalar RipNetworkC.router3.eth[2].mac packetDropNotAddressedToUs:vector(packetBytes):stddev nan
scalar RipNetworkC.router3.eth[2].mac packetDropNotAddressedToUs:vector(packetBytes):min inf
scalar RipNetworkC.router3.eth[2].mac packetDropNotAddressedToUs:vector(packetBytes):max -inf
scalar RipNetworkC.router3.eth[2].mac packetDropNotAddressedToUs:vector(packetBytes):starttime nan
scalar RipNetworkC.router3.eth[2].mac packetDropNotAddressedToUs:vector(packetBytes):endtime nan
scalar RipNetworkC.router3.eth[2] packetDropInterfaceDown:vector(packetBytes):count 0
scalar RipNetworkC.router3.eth[2] packetDropInterfaceDown:vector(packetBytes):sum 0
scalar RipNetworkC.router3.eth[2] packetDropInterfaceDown:vector(packetBytes):sumweights 0
scalar RipNetworkC.router3.eth[2] packetDropInterfaceDown:vector(packetBytes):mean -nan
scalar RipNetworkC.router3.eth[2] packetDropInterfaceDown:vector(packetBytes):stddev nan
scalar RipNetworkC.router3.eth[2] packetDropInterfaceDown:vector(packetBytes):min inf
scalar RipNetworkC.router3.eth[2] packetDropInterfaceDown:vector(packetBytes):max -inf
scalar RipNetworkC.router3.eth[2] packetDropInterfaceDown:vector(packetBytes):starttime nan
scalar RipNetworkC.router3.eth[2] packetDropInterfaceDown:vector(packetBytes):endtime nan
scalar RipNetworkC.router3.eth[2] packetDropNoCarrier:vector(packetBytes):count 0
scalar RipNetworkC.router3.eth[2] packetDropNoCarrier:vector(packetBytes):sum 0
scalar RipNetworkC.router3.eth[2] packetDropNoCarrier:vector(packetBytes):sumweights 0
scalar RipNetworkC.router3.eth[2] packetDropNoCarrier:vector(packetBytes):mean -nan
scalar RipNetworkC.router3.eth[2] packetDropNoCarrier:vector(packetBytes):stddev nan
scalar RipNetworkC.router3.eth[2] packetDropNoCarrier:vector(packetBytes):min inf
scalar RipNetworkC.router3.eth[2] packetDropNoCarrier:vector(packetBytes):max -inf
scalar RipNetworkC.router3.eth[2] packetDropNoCarrier:vector(packetBytes):starttime nan
scalar RipNetworkC.router3.eth[2] packetDropNoCarrier:vector(packetBytes):endtime nan
scalar RipNetworkC.router3.ipv4.ip packetDropAddressResolutionFailed:vector(packetBytes):count 0
scalar RipNetworkC.router3.ipv4.ip packetDropAddressResolutionFailed:vector(packetBytes):sum 0
scalar RipNetworkC.router3.ipv4.ip packetDropAddressResolutionFailed:vector(packetBytes):sumweights 0
scalar RipNetworkC.router3.ipv4.ip packetDropAddressResolutionFailed:vector(packetBytes):mean -nan
scalar RipNetworkC.router3.ipv4.ip packetDropAddressResolutionFailed:vector(packetBytes):stddev nan
scalar RipNetworkC.router3.ipv4.ip packetDropAddressResolutionFailed:vector(packetBytes):min inf
scalar RipNetworkC.router3.ipv4.ip packetDropAddressResolutionFailed:vector(packetBytes):max -inf
scalar RipNetworkC.router3.ipv4.ip packetDropAddressResolutionFailed:vector(packetBytes):starttime nan
scalar RipNetworkC.router3.ipv4.ip packetDropAddressResolutionFailed:vector(packetBytes):endtime nan
scalar RipNetworkC.router3.ipv4.ip packetDropHopLimitReached:vector(packetBytes):count 0
scalar RipNetworkC.router3.ipv4.ip packetDropHopLimitReached:vector(packetBytes):sum 0
scalar RipNetworkC.router3.ipv4.ip packetDropHopLimitReached:vector(packetBytes):sumweights 0
scalar RipNetworkC.router3.ipv4.ip packetDropHopLimitReached:vector(packetBytes):mean -nan
scalar RipNetworkC.router3.ipv4.ip packetDropHopLimitReached:vector(packetBytes):stddev nan
scalar RipNetworkC.router3.ipv4.ip packetDropHopLimitReached:vector(packetBytes):min inf
scalar RipNetworkC.router3.ipv4.ip packetDropHopLimitReached:vector(packetBytes):max -inf
scalar RipNetworkC.router3.ipv4.ip packetDropHopLimitReached:vector(packetBytes):starttime nan
scalar RipNetworkC.router3.ipv4.ip packetDropHopLimitReached:vector(packetBytes):endtime nan
scalar RipNetworkC.router3.ipv4.ip packetDropForwardingDisabled:vector(packetBytes):count 0
scalar RipNetworkC.router3.ipv4.ip packetDropForwardingDisabled:vector(packetBytes):sum 0
scalar RipNetworkC.router3.ipv4.ip packetDropForwardingDisabled:vector(packetBytes):sumweights 0
scalar RipNetworkC.router3.ipv4.ip packetDropForwardingDisabled:vector(packetBytes):mean -nan
scalar RipNetworkC.router3.ipv4.ip packetDropForwardingDisabled:vector(packetBytes):stddev nan
scalar RipNetworkC.router3.ipv4.ip packetDropForwardingDisabled:vector(packetBytes):min inf
scalar RipNetworkC.router3.ipv4.ip packetDropForwardingDisabled:vector(packetBytes):max -inf
scalar RipNetworkC.router3.ipv4.ip packetDropForwardingDisabled:vector(packetBytes):starttime nan
scalar RipNetworkC.router3.ipv4.ip packetDropForwardingDisabled:vector(packetBytes):endtime nan
scalar RipNetworkC.router3.ipv4.ip packetDropLifetimeExpired:vector(packetBytes):count 0
scalar RipNetworkC.router3.ipv4.ip packetDropLifetimeExpired:vector(packetBytes):sum 0
scalar RipNetworkC.router3.ipv4.ip packetDropLifetimeExpired:vector(packetBytes):sumweights 0
scalar RipNetworkC.router3.ipv4.ip packetDropLifetimeExpired:vector(packetBytes):mean -nan
scalar RipNetworkC.router3.ipv4.ip packetDropLifetimeExpired:vector(packetBytes):stddev nan
scalar RipNetworkC.router3.ipv4.ip packetDropLifetimeExpired:vector(packetBytes):min inf
scalar RipNetworkC.router3.ipv4.ip packetDropLifetimeExpired:vector(packetBytes):max -inf
scalar RipNetworkC.router3.ipv4.ip packetDropLifetimeExpired:vector(packetBytes):starttime nan
scalar RipNetworkC.router3.ipv4.ip packetDropLifetimeExpired:vector(packetBytes):endtime nan
scalar RipNetworkC.router3.ipv4.ip packetDropNoInterfaceFound:vector(packetBytes):count 0
scalar RipNetworkC.router3.ipv4.ip packetDropNoInterfaceFound:vector(packetBytes):sum 0
scalar RipNetworkC.router3.ipv4.ip packetDropNoInterfaceFound:vector(packetBytes):sumweights 0
scalar RipNetworkC.router3.ipv4.ip packetDropNoInterfaceFound:vector(packetBytes):mean -nan
scalar RipNetworkC.router3.ipv4.ip packetDropNoInterfaceFound:vector(packetBytes):stddev nan
scalar RipNetworkC.router3.ipv4.ip packetDropNoInterfaceFound:vector(packetBytes):min inf
scalar RipNetworkC.router3.ipv4.ip packetDropNoInterfaceFound:vector(packetBytes):max -inf
scalar RipNetworkC.router3.ipv4.ip packetDropNoInterfaceFound:vector(packetBytes):starttime nan
scalar RipNetworkC.router3.ipv4.ip packetDropNoInterfaceFound:vector(packetBytes):endtime nan
scalar RipNetworkC.router3.ipv4.ip packetDropNoRouteFound:vector(packetBytes):count 0
scalar RipNetworkC.router3.ipv4.ip packetDropNoRouteFound:vector(packetBytes):sum 0
scalar RipNetworkC.router3.ipv4.ip packetDropNoRouteFound:vector(packetBytes):sumweights 0
scalar RipNetworkC.router3.ipv4.ip packetDropNoRouteFound:vector(packetBytes):mean -nan
scalar RipNetworkC.router3.ipv4.ip packetDropNoRouteFound:vector(packetBytes):stddev nan
scalar RipNetworkC.router3.ipv4.ip packetDropNoRouteFound:vector(packetBytes):min inf
scalar RipNetworkC.router3.ipv4.ip packetDropNoRouteFound:vector(packetBytes):max -inf
scalar RipNetworkC.router3.ipv4.ip packetDropNoRouteFound:vector(packetBytes):starttime nan
scalar RipNetworkC.router3.ipv4.ip packetDropNoRouteFound:vector(packetBytes):endtime nan
scalar RipNetworkC.router3.ipv4.ip packetDropUndefined:vector(packetBytes):count 0
scalar RipNetworkC.router3.ipv4.ip packetDropUndefined:vector(packetBytes):sum 0
scalar RipNetworkC.router3.ipv4.ip packetDropUndefined:vector(packetBytes):sumweights 0
scalar RipNetworkC.router3.ipv4.ip packetDropUndefined:vector(packetBytes):mean -nan
scalar RipNetworkC.router3.ipv4.ip packetDropUndefined:vector(packetBytes):stddev nan
scalar RipNetworkC.router3.ipv4.ip packetDropUndefined:vector(packetBytes):min inf
scalar RipNetworkC.router3.ipv4.ip packetDropUndefined:vector(packetBytes):max -inf
scalar RipNetworkC.router3.ipv4.ip packetDropUndefined:vector(packetBytes):starttime nan
scalar RipNetworkC.router3.ipv4.ip packetDropUndefined:vector(packetBytes):endtime nan
scalar RipNetworkC.router3.udp packetSent:vector(packetBytes):count 26
scalar RipNetworkC.router3.udp packetSent:vector(packetBytes):sum 2372
scalar RipNetworkC.router3.udp packetSent:vector(packetBytes):sumweights 26
scalar RipNetworkC.router3.udp packetSent:vector(packetBytes):mean 91.230769230769226
scalar RipNetworkC.router3.udp packetSent:vector(packetBytes):stddev 30.714566827233867
scalar RipNetworkC.router3.udp packetSent:vector(packetBytes):min 32
scalar RipNetworkC.router3.udp packetSent:vector(packetBytes):max 112
scalar RipNetworkC.router3.udp packetSent:vector(packetBytes):starttime 0.84426574409000021
scalar RipNetworkC.router3.udp packetSent:vector(packetBytes):endtime 180.84426574409005
scalar RipNetworkC.router3.udp packetReceived:vector(packetBytes):count 27
scalar RipNetworkC.router3.udp packetReceived:vector(packetBytes):sum 2704
scalar RipNetworkC.router3.udp packetReceived:vector(packetBytes):sumweights 27
scalar RipNetworkC.router3.udp packetReceived:vector(packetBytes):mean 100.14814814814815
scalar RipNetworkC.router3.udp packetReceived:vector(packetBytes):stddev 27.878450050316239
scalar RipNetworkC.router3.udp packetReceived:vector(packetBytes):min 32
scalar RipNetworkC.router3.udp packetReceived:vector(packetBytes):max 132
scalar RipNetworkC.router3.udp packetReceived:vector(packetBytes):starttime 0.84427992409000019
scalar RipNetworkC.router3.udp packetReceived:vector(packetBytes):endtime 180.71520045497203
scalar RipNetworkC.router3.udp passedUpPk:vector(count):count 28
scalar RipNetworkC.router3.udp passedUpPk:vector(count):sum 378
scalar RipNetworkC.router3.udp passedUpPk:vector(count):sumweights 28
scalar RipNetworkC.router3.udp passedUpPk:vector(count):mean 13.5
scalar RipNetworkC.router3.udp passedUpPk:vector(count):stddev 8.2259751195020439
scalar RipNetworkC.router3.udp passedUpPk:vector(count):min 0
scalar RipNetworkC.router3.udp passedUpPk:vector(count):max 27
scalar RipNetworkC.router3.udp passedUpPk:vector(count):starttime 0
scalar RipNetworkC.router3.udp passedUpPk:vector(count):endtime 180.71520045497203
scalar RipNetworkC.router3.udp droppedPkWrongPort:vector(count):count 1
scalar RipNetworkC.router3.udp droppedPkWrongPort:vector(count):sum 0
scalar RipNetworkC.router3.udp droppedPkWrongPort:vector(count):sumweights 1
scalar RipNetworkC.router3.udp droppedPkWrongPort:vector(count):mean 0
scalar RipNetworkC.router3.udp droppedPkWrongPort:vector(count):stddev nan
scalar RipNetworkC.router3.udp droppedPkWrongPort:vector(count):min 0
scalar RipNetworkC.router3.udp droppedPkWrongPort:vector(count):max 0
scalar RipNetworkC.router3.udp droppedPkWrongPort:vector(count):starttime 0
scalar RipNetworkC.router3.udp droppedPkWrongPort:vector(count):endtime 0
scalar RipNetworkC.router3.udp droppedPkBadChecksum:vector(count):count 1
scalar RipNetworkC.router3.udp droppedPkBadChecksum:vector(count):sum 0
scalar RipNetworkC.router3.udp droppedPkBadChecksum:vector(count):sumweights 1
scalar RipNetworkC.router3.udp droppedPkBadChecksum:vector(count):mean 0
scalar RipNetworkC.router3.udp droppedPkBadChecksum:vector(count):stddev nan
scalar RipNetworkC.router3.udp droppedPkBadChecksum:vector(count):min 0
scalar RipNetworkC.router3.udp droppedPkBadChecksum:vector(count):max 0
scalar RipNetworkC.router3.udp droppedPkBadChecksum:vector(count):starttime 0
scalar RipNetworkC.router3.udp droppedPkBadChecksum:vector(count):endtime 0
scalar RipNetworkC.router3.rip sentRequest:vector(constant1):count 4
scalar RipNetworkC.router3.rip sentRequest:vector(constant1):sum 4
scalar RipNetworkC.router3.rip sentRequest:vector(constant1):sumweights 4
scalar RipNetworkC.router3.rip sentRequest:vector(constant1):mean 1
scalar RipNetworkC.router3.rip sentRequest:vector(constant1):stddev 0
scalar RipNetworkC.router3.rip sentRequest:vector(constant1):min 1
scalar RipNetworkC.router3.rip sentRequest:vector(constant1):max 1
scalar RipNetworkC.router3.rip sentRequest:vector(constant1):starttime 0
scalar RipNetworkC.router3.rip sentRequest:vector(constant1):endtime 0.84426574409000021
scalar RipNetworkC.router3.rip sentUpdate:vector(constant1):count 24
scalar RipNetworkC.router3.rip sentUpdate:vector(constant1):sum 24
scalar RipNetworkC.router3.rip sentUpdate:vector(constant1):sumweights 24
scalar RipNetworkC.router3.rip sentUpdate:vector(constant1):mean 1
scalar RipNetworkC.router3.rip sentUpdate:vector(constant1):stddev 0
scalar RipNetworkC.router3.rip sentUpdate:vector(constant1):min 1
scalar RipNetworkC.router3.rip sentUpdate:vector(constant1):max 1
scalar RipNetworkC.router3.rip sentUpdate:vector(constant1):starttime 0
scalar RipNetworkC.router3.rip sentUpdate:vector(constant1):endtime 180.84426574409005
scalar RipNetworkC.router3.rip rcvdResponse:vector(constant1):count 28
scalar RipNetworkC.router3.rip rcvdResponse:vector(constant1):sum 28
scalar RipNetworkC.router3.rip rcvdResponse:vector(constant1):sumweights 28
scalar RipNetworkC.router3.rip rcvdResponse:vector(constant1):mean 1
scalar RipNetworkC.router3.rip rcvdResponse:vector(constant1):stddev 0
scalar RipNetworkC.router3.rip rcvdResponse:vector(constant1):min 1
scalar RipNetworkC.router3.rip rcvdResponse:vector(constant1):max 1
scalar RipNetworkC.router3.rip rcvdResponse:vector(constant1):starttime 0
scalar RipNetworkC.router3.rip rcvdResponse:vector(constant1):endtime 180.71520045497203
scalar RipNetworkC.router3.rip badResponse:vector(constant1):count 1
scalar RipNetworkC.router3.rip badResponse:vector(constant1):sum 1
scalar RipNetworkC.router3.rip badResponse:vector(constant1):sumweights 1
scalar RipNetworkC.router3.rip badResponse:vector(constant1):mean 1
scalar RipNetworkC.router3.rip badResponse:vector(constant1):stddev nan
scalar RipNetworkC.router3.rip badResponse:vector(constant1):min 1
scalar RipNetworkC.router3.rip badResponse:vector(constant1):max 1
scalar RipNetworkC.router3.rip badResponse:vector(constant1):starttime 0
scalar RipNetworkC.router3.rip badResponse:vector(constant1):endtime 0
scalar RipNetworkC.router3.rip numRoutes:vector:count 7
scalar RipNetworkC.router3.rip numRoutes:vector:sum 28
scalar RipNetworkC.router3.rip numRoutes:vector:sumweights 7
scalar RipNetworkC.router3.rip numRoutes:vector:mean 4
scalar RipNetworkC.router3.rip numRoutes:vector:stddev 2.1602468994692869
scalar RipNetworkC.router3.rip numRoutes:vector:min 1
scalar RipNetworkC.router3.rip numRoutes:vector:max 7
scalar RipNetworkC.router3.rip numRoutes:vector:starttime 0.84426574409000021
scalar RipNetworkC.router3.rip numRoutes:vector:endtime 0.84428312409000017

