version 3
run TcpSender1-0-20251118-11:48:52-110773
attr configname TcpSender1
attr datetime 20251118-11:48:52
attr datetimef 20251118-114852
attr experiment TcpSender1
attr inifile omnetpp.ini
attr iterationvars ""
attr iterationvarsd ""
attr iterationvarsf ""
attr measurement ""
attr network inet.examples.inet.redmarker.RedMarkerNetwork
attr processid 110773
attr repetition 0
attr replication #0
attr resultdir results
attr runnumber 0
attr seedset 0
config **.param-recording false
config image-path /home/zoli/Projects/OMNET/inet/images
config output-scalar-file results/omnetpp.ini-TcpSender1-#0.sca
config output-scalar-precision 17
config output-vector-file results/omnetpp.ini-TcpSender1-#0.vec
config output-vector-precision 17
config record-eventlog false
config sim-time-limit 100s
config sim-time-limit 100s
config **.arp.typename GlobalArp
config **.tcp.typename Tcp
config **.tcp.delayedAcksEnabled false
config **.tcp.nagleEnabled false
config **.tcp.limitedTransmitEnabled false
config **.tcp.increasedIWEnabled false
config **.tcp.sackSupport false
config **.tcp.windowScalingSupport true
config **.tcp.timestampSupport false
config **.tcp.tcpAlgorithmClass "\"TcpReno\""
config **.tcp.advertisedWindow 5000000
config **.tcp.mss 1460
config **.tcp.ecnWillingness true
config **.sender1.numApps 1
config **.receiver1.numApps 1
config **.sender1.app[0].typename TcpSessionApp
config **.sender1.app[0].active true
config **.sender1.app[0].localPort -1
config **.sender1.app[0].sendBytes 5MiB
config **.sender1.app[0].sendScript "\"\""
config **.sender1.app[0].tClose -1s
config **.sender1.app[0].connectPort 1000
config **.sender1.app[0].connectAddress "\"receiver1\""
config **.sender1.app[0].tOpen 10s
config **.receiver1.app[0].typename TcpSinkApp
config **.receiver1.app[0].localPort 1000
config network inet.examples.inet.redmarker.RedMarkerNetwork
config description (abstract)
config **.routerCore*.eth[*].queue.typename RedDropperQueue
config **.routerCore*.eth[*].queue.red.useEcn true
config **.routerCore*.eth[*].queue.red.wq 1
config **.routerCore*.eth[*].queue.red.minth 3
config **.routerCore*.eth[*].queue.red.maxth 4
config **.routerCore*.eth[*].queue.red.maxp 1
config **.routerCore*.eth[0].queue.red.pkrate 8333.3333
config **.routerCore*.eth[1].queue.red.pkrate 833.3333
config **.routerCore*.eth[*].queue.red.packetCapacity 24

scalar RedMarkerNetwork.routerCore1.ethernet pauseSent:count 0
scalar RedMarkerNetwork.routerCore1.ethernet pauseSent:sum 0
scalar RedMarkerNetwork.routerCore1.ethernet decapPk:count 13209
scalar RedMarkerNetwork.routerCore1.ethernet decapPk:sum(packetBytes) 5810887
scalar RedMarkerNetwork.routerCore1.ethernet encapPk:count 13209
scalar RedMarkerNetwork.routerCore1.ethernet encapPk:sum(packetBytes) 5771256
scalar RedMarkerNetwork.routerCore1.lo[0].lo rcvdPkFromHl:count 0
scalar RedMarkerNetwork.routerCore1.lo[0].lo rcvdPkFromHl:sum(packetBytes) 0
scalar RedMarkerNetwork.routerCore1.lo[0].lo passedUpPk:count 0
scalar RedMarkerNetwork.routerCore1.lo[0].lo passedUpPk:sum(packetBytes) 0
scalar RedMarkerNetwork.routerCore1.lo[0] packetDropInterfaceDown:count 0
scalar RedMarkerNetwork.routerCore1.lo[0] packetDropInterfaceDown:sum(packetBytes) 0
scalar RedMarkerNetwork.routerCore1.lo[0] packetDropNoCarrier:count 0
scalar RedMarkerNetwork.routerCore1.lo[0] packetDropNoCarrier:sum(packetBytes) 0
scalar RedMarkerNetwork.routerCore1.eth[0].queue.red outgoingPackets:count 6604
scalar RedMarkerNetwork.routerCore1.eth[0].queue.red outgoingPacketLengths:sum 3064320
scalar RedMarkerNetwork.routerCore1.eth[0].queue.red flowOutgoingPacketLengths:sum 0
scalar RedMarkerNetwork.routerCore1.eth[0].queue.red incomingPackets:count 6604
scalar RedMarkerNetwork.routerCore1.eth[0].queue.red incomingPacketLengths:sum 3064320
scalar RedMarkerNetwork.routerCore1.eth[0].queue.red flowIncomingPacketLengths:sum 0
scalar RedMarkerNetwork.routerCore1.eth[0].queue.red droppedPackets:count 0
scalar RedMarkerNetwork.routerCore1.eth[0].queue.red droppedPacketLengths:sum 0
scalar RedMarkerNetwork.routerCore1.eth[0].queue.red flowDroppedPacketLengths:sum 0
scalar RedMarkerNetwork.routerCore1.eth[0].queue.red packetDropCongestion:count 0
scalar RedMarkerNetwork.routerCore1.eth[0].queue.red packetDropCongestion:sum(packetBytes) 0
scalar RedMarkerNetwork.routerCore1.eth[0].queue.fifo queueLength:last 0
scalar RedMarkerNetwork.routerCore1.eth[0].queue.fifo queueLength:max 0
scalar RedMarkerNetwork.routerCore1.eth[0].queue.fifo queueLength:timeavg 0
scalar RedMarkerNetwork.routerCore1.eth[0].queue.fifo queueBitLength:last 0
scalar RedMarkerNetwork.routerCore1.eth[0].queue.fifo queueBitLength:max 0
scalar RedMarkerNetwork.routerCore1.eth[0].queue.fifo queueBitLength:timeavg 0
scalar RedMarkerNetwork.routerCore1.eth[0].queue.fifo outgoingPackets:count 6604
scalar RedMarkerNetwork.routerCore1.eth[0].queue.fifo outgoingPacketLengths:sum 3064320
scalar RedMarkerNetwork.routerCore1.eth[0].queue.fifo incomingPackets:count 6604
scalar RedMarkerNetwork.routerCore1.eth[0].queue.fifo incomingPacketLengths:sum 3064320
scalar RedMarkerNetwork.routerCore1.eth[0].queue.fifo droppedPacketsQueueOverflow:count 0
scalar RedMarkerNetwork.routerCore1.eth[0].queue.fifo droppedPacketLengthsQueueOverflow:sum 0
scalar RedMarkerNetwork.routerCore1.eth[0].queue queueLength:last -6604
scalar RedMarkerNetwork.routerCore1.eth[0].queue queueLength:max 0
scalar RedMarkerNetwork.routerCore1.eth[0].queue queueLength:timeavg -5777.3319136439995
scalar RedMarkerNetwork.routerCore1.eth[0].queue queueBitLength:last -3064320
scalar RedMarkerNetwork.routerCore1.eth[0].queue queueBitLength:max 0
scalar RedMarkerNetwork.routerCore1.eth[0].queue queueBitLength:timeavg -2680739.6046436736
scalar RedMarkerNetwork.routerCore1.eth[0].queue outgoingPackets:count 6604
scalar RedMarkerNetwork.routerCore1.eth[0].queue outgoingPacketLengths:sum 3064320
scalar RedMarkerNetwork.routerCore1.eth[0].queue incomingPackets:count 0
scalar RedMarkerNetwork.routerCore1.eth[0].queue incomingPacketLengths:sum 0
scalar RedMarkerNetwork.routerCore1.eth[0].queue droppedPacketsQueueOverflow:count 0
scalar RedMarkerNetwork.routerCore1.eth[0].queue droppedPacketLengthsQueueOverflow:sum 0
scalar RedMarkerNetwork.routerCore1.eth[0].mac "simulated time" 100
scalar RedMarkerNetwork.routerCore1.eth[0].mac full-duplex 1
scalar RedMarkerNetwork.routerCore1.eth[0].mac "frames/sec sent" 66.040000000000006
scalar RedMarkerNetwork.routerCore1.eth[0].mac "frames/sec rcvd" 66.049999999999997
scalar RedMarkerNetwork.routerCore1.eth[0].mac "bits/sec sent" 33812.639999999999
scalar RedMarkerNetwork.routerCore1.eth[0].mac "bits/sec rcvd" 450079.28000000003
scalar RedMarkerNetwork.routerCore1.eth[0].mac "rx channel idle (%)" 99.54569352
scalar RedMarkerNetwork.routerCore1.eth[0].mac "rx channel utilization (%)" 0.45430647999999996
scalar RedMarkerNetwork.routerCore1.eth[0].mac rxPausePkUnits:count 0
scalar RedMarkerNetwork.routerCore1.eth[0].mac rxPausePkUnits:sum 0
scalar RedMarkerNetwork.routerCore1.eth[0].mac txPausePkUnits:count 0
scalar RedMarkerNetwork.routerCore1.eth[0].mac txPausePkUnits:sum 0
scalar RedMarkerNetwork.routerCore1.eth[0].mac rxPkOk:count 6605
scalar RedMarkerNetwork.routerCore1.eth[0].mac rxPkOk:sum(packetBytes) 5625991
scalar RedMarkerNetwork.routerCore1.eth[0].mac txPk:count 6604
scalar RedMarkerNetwork.routerCore1.eth[0].mac txPk:sum(packetBytes) 422658
scalar RedMarkerNetwork.routerCore1.eth[0].mac packetReceivedFromUpper:count 6604
scalar RedMarkerNetwork.routerCore1.eth[0].mac packetReceivedFromUpper:sum(packetBytes) 383040
scalar RedMarkerNetwork.routerCore1.eth[0].mac passedUpPk:count 6605
scalar RedMarkerNetwork.routerCore1.eth[0].mac passedUpPk:sum(packetBytes) 5625991
scalar RedMarkerNetwork.routerCore1.eth[0].mac packetDropIncorrectlyReceived:count 0
scalar RedMarkerNetwork.routerCore1.eth[0].mac packetDropIncorrectlyReceived:sum(packetBytes) 0
scalar RedMarkerNetwork.routerCore1.eth[0].mac packetDropInterfaceDown:count 0
scalar RedMarkerNetwork.routerCore1.eth[0].mac packetDropInterfaceDown:sum(packetBytes) 0
scalar RedMarkerNetwork.routerCore1.eth[0].mac packetDropNotAddressedToUs:count 0
scalar RedMarkerNetwork.routerCore1.eth[0].mac packetDropNotAddressedToUs:sum(packetBytes) 0
scalar RedMarkerNetwork.routerCore1.eth[0] packetDropInterfaceDown:count 0
scalar RedMarkerNetwork.routerCore1.eth[0] packetDropInterfaceDown:sum(packetBytes) 0
scalar RedMarkerNetwork.routerCore1.eth[0] packetDropNoCarrier:count 0
scalar RedMarkerNetwork.routerCore1.eth[0] packetDropNoCarrier:sum(packetBytes) 0
scalar RedMarkerNetwork.routerCore1.eth[1].queue.red outgoingPackets:count 6605
scalar RedMarkerNetwork.routerCore1.eth[1].queue.red outgoingPacketLengths:sum 45007824
scalar RedMarkerNetwork.routerCore1.eth[1].queue.red flowOutgoingPacketLengths:sum 0
scalar RedMarkerNetwork.routerCore1.eth[1].queue.red incomingPackets:count 6605
scalar RedMarkerNetwork.routerCore1.eth[1].queue.red incomingPacketLengths:sum 45007824
scalar RedMarkerNetwork.routerCore1.eth[1].queue.red flowIncomingPacketLengths:sum 0
scalar RedMarkerNetwork.routerCore1.eth[1].queue.red droppedPackets:count 0
scalar RedMarkerNetwork.routerCore1.eth[1].queue.red droppedPacketLengths:sum 0
scalar RedMarkerNetwork.routerCore1.eth[1].queue.red flowDroppedPacketLengths:sum 0
scalar RedMarkerNetwork.routerCore1.eth[1].queue.red packetDropCongestion:count 0
scalar RedMarkerNetwork.routerCore1.eth[1].queue.red packetDropCongestion:sum(packetBytes) 0
scalar RedMarkerNetwork.routerCore1.eth[1].queue.fifo queueLength:last 0
scalar RedMarkerNetwork.routerCore1.eth[1].queue.fifo queueLength:max 15
scalar RedMarkerNetwork.routerCore1.eth[1].queue.fifo queueLength:timeavg 0.13532968479999966
scalar RedMarkerNetwork.routerCore1.eth[1].queue.fifo queueBitLength:last 0
scalar RedMarkerNetwork.routerCore1.eth[1].queue.fifo queueBitLength:max 182160
scalar RedMarkerNetwork.routerCore1.eth[1].queue.fifo queueBitLength:timeavg 808.84297491840164
scalar RedMarkerNetwork.routerCore1.eth[1].queue.fifo outgoingPackets:count 6605
scalar RedMarkerNetwork.routerCore1.eth[1].queue.fifo outgoingPacketLengths:sum 45007824
scalar RedMarkerNetwork.routerCore1.eth[1].queue.fifo incomingPackets:count 6605
scalar RedMarkerNetwork.routerCore1.eth[1].queue.fifo incomingPacketLengths:sum 45007824
scalar RedMarkerNetwork.routerCore1.eth[1].queue.fifo droppedPacketsQueueOverflow:count 0
scalar RedMarkerNetwork.routerCore1.eth[1].queue.fifo droppedPacketLengthsQueueOverflow:sum 0
scalar RedMarkerNetwork.routerCore1.eth[1].queue queueLength:last -6605
scalar RedMarkerNetwork.routerCore1.eth[1].queue queueLength:max 0
scalar RedMarkerNetwork.routerCore1.eth[1].queue queueLength:timeavg -5778.5502468575987
scalar RedMarkerNetwork.routerCore1.eth[1].queue queueBitLength:last -45007824
scalar RedMarkerNetwork.routerCore1.eth[1].queue queueBitLength:max 0
scalar RedMarkerNetwork.routerCore1.eth[1].queue queueBitLength:timeavg -39383950.966556013
scalar RedMarkerNetwork.routerCore1.eth[1].queue outgoingPackets:count 6605
scalar RedMarkerNetwork.routerCore1.eth[1].queue outgoingPacketLengths:sum 45007824
scalar RedMarkerNetwork.routerCore1.eth[1].queue incomingPackets:count 0
scalar RedMarkerNetwork.routerCore1.eth[1].queue incomingPacketLengths:sum 0
scalar RedMarkerNetwork.routerCore1.eth[1].queue droppedPacketsQueueOverflow:count 0
scalar RedMarkerNetwork.routerCore1.eth[1].queue droppedPacketLengthsQueueOverflow:sum 0
scalar RedMarkerNetwork.routerCore1.eth[1].mac "simulated time" 100
scalar RedMarkerNetwork.routerCore1.eth[1].mac full-duplex 1
scalar RedMarkerNetwork.routerCore1.eth[1].mac "frames/sec sent" 66.049999999999997
scalar RedMarkerNetwork.routerCore1.eth[1].mac "frames/sec rcvd" 66.040000000000006
scalar RedMarkerNetwork.routerCore1.eth[1].mac "bits/sec sent" 450079.28000000003
scalar RedMarkerNetwork.routerCore1.eth[1].mac "bits/sec rcvd" 33812.639999999999
scalar RedMarkerNetwork.routerCore1.eth[1].mac "rx channel idle (%)" 99.619607999999999
scalar RedMarkerNetwork.routerCore1.eth[1].mac "rx channel utilization (%)" 0.38039200000000001
scalar RedMarkerNetwork.routerCore1.eth[1].mac rxPausePkUnits:count 0
scalar RedMarkerNetwork.routerCore1.eth[1].mac rxPausePkUnits:sum 0
scalar RedMarkerNetwork.routerCore1.eth[1].mac txPausePkUnits:count 0
scalar RedMarkerNetwork.routerCore1.eth[1].mac txPausePkUnits:sum 0
scalar RedMarkerNetwork.routerCore1.eth[1].mac rxPkOk:count 6604
scalar RedMarkerNetwork.routerCore1.eth[1].mac rxPkOk:sum(packetBytes) 422658
scalar RedMarkerNetwork.routerCore1.eth[1].mac txPk:count 6605
scalar RedMarkerNetwork.routerCore1.eth[1].mac txPk:sum(packetBytes) 5625991
scalar RedMarkerNetwork.routerCore1.eth[1].mac packetReceivedFromUpper:count 6605
scalar RedMarkerNetwork.routerCore1.eth[1].mac packetReceivedFromUpper:sum(packetBytes) 5625978
scalar RedMarkerNetwork.routerCore1.eth[1].mac passedUpPk:count 6604
scalar RedMarkerNetwork.routerCore1.eth[1].mac passedUpPk:sum(packetBytes) 422658
scalar RedMarkerNetwork.routerCore1.eth[1].mac packetDropIncorrectlyReceived:count 0
scalar RedMarkerNetwork.routerCore1.eth[1].mac packetDropIncorrectlyReceived:sum(packetBytes) 0
scalar RedMarkerNetwork.routerCore1.eth[1].mac packetDropInterfaceDown:count 0
scalar RedMarkerNetwork.routerCore1.eth[1].mac packetDropInterfaceDown:sum(packetBytes) 0
scalar RedMarkerNetwork.routerCore1.eth[1].mac packetDropNotAddressedToUs:count 0
scalar RedMarkerNetwork.routerCore1.eth[1].mac packetDropNotAddressedToUs:sum(packetBytes) 0
scalar RedMarkerNetwork.routerCore1.eth[1] packetDropInterfaceDown:count 0
scalar RedMarkerNetwork.routerCore1.eth[1] packetDropInterfaceDown:sum(packetBytes) 0
scalar RedMarkerNetwork.routerCore1.eth[1] packetDropNoCarrier:count 0
scalar RedMarkerNetwork.routerCore1.eth[1] packetDropNoCarrier:sum(packetBytes) 0
scalar RedMarkerNetwork.routerCore1.ipv4.ip packetDropAddressResolutionFailed:count 0
scalar RedMarkerNetwork.routerCore1.ipv4.ip packetDropAddressResolutionFailed:sum(packetBytes) 0
scalar RedMarkerNetwork.routerCore1.ipv4.ip packetDropHopLimitReached:count 0
scalar RedMarkerNetwork.routerCore1.ipv4.ip packetDropHopLimitReached:sum(packetBytes) 0
scalar RedMarkerNetwork.routerCore1.ipv4.ip packetDropForwardingDisabled:count 0
scalar RedMarkerNetwork.routerCore1.ipv4.ip packetDropForwardingDisabled:sum(packetBytes) 0
scalar RedMarkerNetwork.routerCore1.ipv4.ip packetDropLifetimeExpired:count 0
scalar RedMarkerNetwork.routerCore1.ipv4.ip packetDropLifetimeExpired:sum(packetBytes) 0
scalar RedMarkerNetwork.routerCore1.ipv4.ip packetDropNoInterfaceFound:count 0
scalar RedMarkerNetwork.routerCore1.ipv4.ip packetDropNoInterfaceFound:sum(packetBytes) 0
scalar RedMarkerNetwork.routerCore1.ipv4.ip packetDropNoRouteFound:count 0
scalar RedMarkerNetwork.routerCore1.ipv4.ip packetDropNoRouteFound:sum(packetBytes) 0
scalar RedMarkerNetwork.routerCore1.ipv4.ip packetDropUndefined:count 0
scalar RedMarkerNetwork.routerCore1.ipv4.ip packetDropUndefined:sum(packetBytes) 0
scalar RedMarkerNetwork.routerCore2.ethernet pauseSent:count 0
scalar RedMarkerNetwork.routerCore2.ethernet pauseSent:sum 0
scalar RedMarkerNetwork.routerCore2.ethernet decapPk:count 13209
scalar RedMarkerNetwork.routerCore2.ethernet decapPk:sum(packetBytes) 5810887
scalar RedMarkerNetwork.routerCore2.ethernet encapPk:count 13209
scalar RedMarkerNetwork.routerCore2.ethernet encapPk:sum(packetBytes) 5771256
scalar RedMarkerNetwork.routerCore2.lo[0].lo rcvdPkFromHl:count 0
scalar RedMarkerNetwork.routerCore2.lo[0].lo rcvdPkFromHl:sum(packetBytes) 0
scalar RedMarkerNetwork.routerCore2.lo[0].lo passedUpPk:count 0
scalar RedMarkerNetwork.routerCore2.lo[0].lo passedUpPk:sum(packetBytes) 0
scalar RedMarkerNetwork.routerCore2.lo[0] packetDropInterfaceDown:count 0
scalar RedMarkerNetwork.routerCore2.lo[0] packetDropInterfaceDown:sum(packetBytes) 0
scalar RedMarkerNetwork.routerCore2.lo[0] packetDropNoCarrier:count 0
scalar RedMarkerNetwork.routerCore2.lo[0] packetDropNoCarrier:sum(packetBytes) 0
scalar RedMarkerNetwork.routerCore2.eth[0].queue.red outgoingPackets:count 6605
scalar RedMarkerNetwork.routerCore2.eth[0].queue.red outgoingPacketLengths:sum 45007824
scalar RedMarkerNetwork.routerCore2.eth[0].queue.red flowOutgoingPacketLengths:sum 0
scalar RedMarkerNetwork.routerCore2.eth[0].queue.red incomingPackets:count 6605
scalar RedMarkerNetwork.routerCore2.eth[0].queue.red incomingPacketLengths:sum 45007824
scalar RedMarkerNetwork.routerCore2.eth[0].queue.red flowIncomingPacketLengths:sum 0
scalar RedMarkerNetwork.routerCore2.eth[0].queue.red droppedPackets:count 0
scalar RedMarkerNetwork.routerCore2.eth[0].queue.red droppedPacketLengths:sum 0
scalar RedMarkerNetwork.routerCore2.eth[0].queue.red flowDroppedPacketLengths:sum 0
scalar RedMarkerNetwork.routerCore2.eth[0].queue.red packetDropCongestion:count 0
scalar RedMarkerNetwork.routerCore2.eth[0].queue.red packetDropCongestion:sum(packetBytes) 0
scalar RedMarkerNetwork.routerCore2.eth[0].queue.fifo queueLength:last 0
scalar RedMarkerNetwork.routerCore2.eth[0].queue.fifo queueLength:max 1
scalar RedMarkerNetwork.routerCore2.eth[0].queue.fifo queueLength:timeavg 4.5077600000000031e-05
scalar RedMarkerNetwork.routerCore2.eth[0].queue.fifo queueBitLength:last 0
scalar RedMarkerNetwork.routerCore2.eth[0].queue.fifo queueBitLength:max 1064
scalar RedMarkerNetwork.routerCore2.eth[0].queue.fifo queueBitLength:timeavg 0.031316921600000019
scalar RedMarkerNetwork.routerCore2.eth[0].queue.fifo outgoingPackets:count 6605
scalar RedMarkerNetwork.routerCore2.eth[0].queue.fifo outgoingPacketLengths:sum 45007824
scalar RedMarkerNetwork.routerCore2.eth[0].queue.fifo incomingPackets:count 6605
scalar RedMarkerNetwork.routerCore2.eth[0].queue.fifo incomingPacketLengths:sum 45007824
scalar RedMarkerNetwork.routerCore2.eth[0].queue.fifo droppedPacketsQueueOverflow:count 0
scalar RedMarkerNetwork.routerCore2.eth[0].queue.fifo droppedPacketLengthsQueueOverflow:sum 0
scalar RedMarkerNetwork.routerCore2.eth[0].queue queueLength:last -6605
scalar RedMarkerNetwork.routerCore2.eth[0].queue queueLength:max 0
scalar RedMarkerNetwork.routerCore2.eth[0].queue queueLength:timeavg -5778.438721131999
scalar RedMarkerNetwork.routerCore2.eth[0].queue queueBitLength:last -45007824
scalar RedMarkerNetwork.routerCore2.eth[0].queue queueBitLength:max 0
scalar RedMarkerNetwork.routerCore2.eth[0].queue queueBitLength:timeavg -39383090.176832378
scalar RedMarkerNetwork.routerCore2.eth[0].queue outgoingPackets:count 6605
scalar RedMarkerNetwork.routerCore2.eth[0].queue outgoingPacketLengths:sum 45007824
scalar RedMarkerNetwork.routerCore2.eth[0].queue incomingPackets:count 0
scalar RedMarkerNetwork.routerCore2.eth[0].queue incomingPacketLengths:sum 0
scalar RedMarkerNetwork.routerCore2.eth[0].queue droppedPacketsQueueOverflow:count 0
scalar RedMarkerNetwork.routerCore2.eth[0].queue droppedPacketLengthsQueueOverflow:sum 0
scalar RedMarkerNetwork.routerCore2.eth[0].mac "simulated time" 100
scalar RedMarkerNetwork.routerCore2.eth[0].mac full-duplex 1
scalar RedMarkerNetwork.routerCore2.eth[0].mac "frames/sec sent" 66.049999999999997
scalar RedMarkerNetwork.routerCore2.eth[0].mac "frames/sec rcvd" 66.040000000000006
scalar RedMarkerNetwork.routerCore2.eth[0].mac "bits/sec sent" 450079.28000000003
scalar RedMarkerNetwork.routerCore2.eth[0].mac "bits/sec rcvd" 33812.639999999999
scalar RedMarkerNetwork.routerCore2.eth[0].mac "rx channel idle (%)" 99.9619608
scalar RedMarkerNetwork.routerCore2.eth[0].mac "rx channel utilization (%)" 0.038039200000000002
scalar RedMarkerNetwork.routerCore2.eth[0].mac rxPausePkUnits:count 0
scalar RedMarkerNetwork.routerCore2.eth[0].mac rxPausePkUnits:sum 0
scalar RedMarkerNetwork.routerCore2.eth[0].mac txPausePkUnits:count 0
scalar RedMarkerNetwork.routerCore2.eth[0].mac txPausePkUnits:sum 0
scalar RedMarkerNetwork.routerCore2.eth[0].mac rxPkOk:count 6604
scalar RedMarkerNetwork.routerCore2.eth[0].mac rxPkOk:sum(packetBytes) 422658
scalar RedMarkerNetwork.routerCore2.eth[0].mac txPk:count 6605
scalar RedMarkerNetwork.routerCore2.eth[0].mac txPk:sum(packetBytes) 5625991
scalar RedMarkerNetwork.routerCore2.eth[0].mac packetReceivedFromUpper:count 6605
scalar RedMarkerNetwork.routerCore2.eth[0].mac packetReceivedFromUpper:sum(packetBytes) 5625978
scalar RedMarkerNetwork.routerCore2.eth[0].mac passedUpPk:count 6604
scalar RedMarkerNetwork.routerCore2.eth[0].mac passedUpPk:sum(packetBytes) 422658
scalar RedMarkerNetwork.routerCore2.eth[0].mac packetDropIncorrectlyReceived:count 0
scalar RedMarkerNetwork.routerCore2.eth[0].mac packetDropIncorrectlyReceived:sum(packetBytes) 0
scalar RedMarkerNetwork.routerCore2.eth[0].mac packetDropInterfaceDown:count 0
scalar RedMarkerNetwork.routerCore2.eth[0].mac packetDropInterfaceDown:sum(packetBytes) 0
scalar RedMarkerNetwork.routerCore2.eth[0].mac packetDropNotAddressedToUs:count 0
scalar RedMarkerNetwork.routerCore2.eth[0].mac packetDropNotAddressedToUs:sum(packetBytes) 0
scalar RedMarkerNetwork.routerCore2.eth[0] packetDropInterfaceDown:count 0
scalar RedMarkerNetwork.routerCore2.eth[0] packetDropInterfaceDown:sum(packetBytes) 0
scalar RedMarkerNetwork.routerCore2.eth[0] packetDropNoCarrier:count 0
scalar RedMarkerNetwork.routerCore2.eth[0] packetDropNoCarrier:sum(packetBytes) 0
scalar RedMarkerNetwork.routerCore2.eth[1].queue.red outgoingPackets:count 6604
scalar RedMarkerNetwork.routerCore2.eth[1].queue.red outgoingPacketLengths:sum 3064320
scalar RedMarkerNetwork.routerCore2.eth[1].queue.red flowOutgoingPacketLengths:sum 0
scalar RedMarkerNetwork.routerCore2.eth[1].queue.red incomingPackets:count 6604
scalar RedMarkerNetwork.routerCore2.eth[1].queue.red incomingPacketLengths:sum 3064320
scalar RedMarkerNetwork.routerCore2.eth[1].queue.red flowIncomingPacketLengths:sum 0
scalar RedMarkerNetwork.routerCore2.eth[1].queue.red droppedPackets:count 0
scalar RedMarkerNetwork.routerCore2.eth[1].queue.red droppedPacketLengths:sum 0
scalar RedMarkerNetwork.routerCore2.eth[1].queue.red flowDroppedPacketLengths:sum 0
scalar RedMarkerNetwork.routerCore2.eth[1].queue.red packetDropCongestion:count 0
scalar RedMarkerNetwork.routerCore2.eth[1].queue.red packetDropCongestion:sum(packetBytes) 0
scalar RedMarkerNetwork.routerCore2.eth[1].queue.fifo queueLength:last 0
scalar RedMarkerNetwork.routerCore2.eth[1].queue.fifo queueLength:max 1
scalar RedMarkerNetwork.routerCore2.eth[1].queue.fifo queueLength:timeavg 0.00010421040000000006
scalar RedMarkerNetwork.routerCore2.eth[1].queue.fifo queueBitLength:last 0
scalar RedMarkerNetwork.routerCore2.eth[1].queue.fifo queueBitLength:max 464
scalar RedMarkerNetwork.routerCore2.eth[1].queue.fifo queueBitLength:timeavg 0.048353625600000012
scalar RedMarkerNetwork.routerCore2.eth[1].queue.fifo outgoingPackets:count 6604
scalar RedMarkerNetwork.routerCore2.eth[1].queue.fifo outgoingPacketLengths:sum 3064320
scalar RedMarkerNetwork.routerCore2.eth[1].queue.fifo incomingPackets:count 6604
scalar RedMarkerNetwork.routerCore2.eth[1].queue.fifo incomingPacketLengths:sum 3064320
scalar RedMarkerNetwork.routerCore2.eth[1].queue.fifo droppedPacketsQueueOverflow:count 0
scalar RedMarkerNetwork.routerCore2.eth[1].queue.fifo droppedPacketLengthsQueueOverflow:sum 0
scalar RedMarkerNetwork.routerCore2.eth[1].queue queueLength:last -6604
scalar RedMarkerNetwork.routerCore2.eth[1].queue queueLength:max 0
scalar RedMarkerNetwork.routerCore2.eth[1].queue queueLength:timeavg -5777.401757564
scalar RedMarkerNetwork.routerCore2.eth[1].queue queueBitLength:last -3064320
scalar RedMarkerNetwork.routerCore2.eth[1].queue queueBitLength:max 0
scalar RedMarkerNetwork.routerCore2.eth[1].queue queueBitLength:timeavg -2680772.0129004414
scalar RedMarkerNetwork.routerCore2.eth[1].queue outgoingPackets:count 6604
scalar RedMarkerNetwork.routerCore2.eth[1].queue outgoingPacketLengths:sum 3064320
scalar RedMarkerNetwork.routerCore2.eth[1].queue incomingPackets:count 0
scalar RedMarkerNetwork.routerCore2.eth[1].queue incomingPacketLengths:sum 0
scalar RedMarkerNetwork.routerCore2.eth[1].queue droppedPacketsQueueOverflow:count 0
scalar RedMarkerNetwork.routerCore2.eth[1].queue droppedPacketLengthsQueueOverflow:sum 0
scalar RedMarkerNetwork.routerCore2.eth[1].mac "simulated time" 100
scalar RedMarkerNetwork.routerCore2.eth[1].mac full-duplex 1
scalar RedMarkerNetwork.routerCore2.eth[1].mac "frames/sec sent" 66.040000000000006
scalar RedMarkerNetwork.routerCore2.eth[1].mac "frames/sec rcvd" 66.049999999999997
scalar RedMarkerNetwork.routerCore2.eth[1].mac "bits/sec sent" 33812.639999999999
scalar RedMarkerNetwork.routerCore2.eth[1].mac "bits/sec rcvd" 450079.28000000003
scalar RedMarkerNetwork.routerCore2.eth[1].mac "rx channel idle (%)" 95.456935200000004
scalar RedMarkerNetwork.routerCore2.eth[1].mac "rx channel utilization (%)" 4.5430647999999998
scalar RedMarkerNetwork.routerCore2.eth[1].mac rxPausePkUnits:count 0
scalar RedMarkerNetwork.routerCore2.eth[1].mac rxPausePkUnits:sum 0
scalar RedMarkerNetwork.routerCore2.eth[1].mac txPausePkUnits:count 0
scalar RedMarkerNetwork.routerCore2.eth[1].mac txPausePkUnits:sum 0
scalar RedMarkerNetwork.routerCore2.eth[1].mac rxPkOk:count 6605
scalar RedMarkerNetwork.routerCore2.eth[1].mac rxPkOk:sum(packetBytes) 5625991
scalar RedMarkerNetwork.routerCore2.eth[1].mac txPk:count 6604
scalar RedMarkerNetwork.routerCore2.eth[1].mac txPk:sum(packetBytes) 422658
scalar RedMarkerNetwork.routerCore2.eth[1].mac packetReceivedFromUpper:count 6604
scalar RedMarkerNetwork.routerCore2.eth[1].mac packetReceivedFromUpper:sum(packetBytes) 383040
scalar RedMarkerNetwork.routerCore2.eth[1].mac passedUpPk:count 6605
scalar RedMarkerNetwork.routerCore2.eth[1].mac passedUpPk:sum(packetBytes) 5625991
scalar RedMarkerNetwork.routerCore2.eth[1].mac packetDropIncorrectlyReceived:count 0
scalar RedMarkerNetwork.routerCore2.eth[1].mac packetDropIncorrectlyReceived:sum(packetBytes) 0
scalar RedMarkerNetwork.routerCore2.eth[1].mac packetDropInterfaceDown:count 0
scalar RedMarkerNetwork.routerCore2.eth[1].mac packetDropInterfaceDown:sum(packetBytes) 0
scalar RedMarkerNetwork.routerCore2.eth[1].mac packetDropNotAddressedToUs:count 0
scalar RedMarkerNetwork.routerCore2.eth[1].mac packetDropNotAddressedToUs:sum(packetBytes) 0
scalar RedMarkerNetwork.routerCore2.eth[1] packetDropInterfaceDown:count 0
scalar RedMarkerNetwork.routerCore2.eth[1] packetDropInterfaceDown:sum(packetBytes) 0
scalar RedMarkerNetwork.routerCore2.eth[1] packetDropNoCarrier:count 0
scalar RedMarkerNetwork.routerCore2.eth[1] packetDropNoCarrier:sum(packetBytes) 0
scalar RedMarkerNetwork.routerCore2.ipv4.ip packetDropAddressResolutionFailed:count 0
scalar RedMarkerNetwork.routerCore2.ipv4.ip packetDropAddressResolutionFailed:sum(packetBytes) 0
scalar RedMarkerNetwork.routerCore2.ipv4.ip packetDropHopLimitReached:count 0
scalar RedMarkerNetwork.routerCore2.ipv4.ip packetDropHopLimitReached:sum(packetBytes) 0
scalar RedMarkerNetwork.routerCore2.ipv4.ip packetDropForwardingDisabled:count 0
scalar RedMarkerNetwork.routerCore2.ipv4.ip packetDropForwardingDisabled:sum(packetBytes) 0
scalar RedMarkerNetwork.routerCore2.ipv4.ip packetDropLifetimeExpired:count 0
scalar RedMarkerNetwork.routerCore2.ipv4.ip packetDropLifetimeExpired:sum(packetBytes) 0
scalar RedMarkerNetwork.routerCore2.ipv4.ip packetDropNoInterfaceFound:count 0
scalar RedMarkerNetwork.routerCore2.ipv4.ip packetDropNoInterfaceFound:sum(packetBytes) 0
scalar RedMarkerNetwork.routerCore2.ipv4.ip packetDropNoRouteFound:count 0
scalar RedMarkerNetwork.routerCore2.ipv4.ip packetDropNoRouteFound:sum(packetBytes) 0
scalar RedMarkerNetwork.routerCore2.ipv4.ip packetDropUndefined:count 0
scalar RedMarkerNetwork.routerCore2.ipv4.ip packetDropUndefined:sum(packetBytes) 0
scalar RedMarkerNetwork.sender1.ethernet pauseSent:count 0
scalar RedMarkerNetwork.sender1.ethernet pauseSent:sum 0
scalar RedMarkerNetwork.sender1.ethernet decapPk:count 6604
scalar RedMarkerNetwork.sender1.ethernet decapPk:sum(packetBytes) 303786
scalar RedMarkerNetwork.sender1.ethernet encapPk:count 6605
scalar RedMarkerNetwork.sender1.ethernet encapPk:sum(packetBytes) 5507088
scalar RedMarkerNetwork.sender1.lo[0].lo rcvdPkFromHl:count 0
scalar RedMarkerNetwork.sender1.lo[0].lo rcvdPkFromHl:sum(packetBytes) 0
scalar RedMarkerNetwork.sender1.lo[0].lo passedUpPk:count 0
scalar RedMarkerNetwork.sender1.lo[0].lo passedUpPk:sum(packetBytes) 0
scalar RedMarkerNetwork.sender1.lo[0] packetDropInterfaceDown:count 0
scalar RedMarkerNetwork.sender1.lo[0] packetDropInterfaceDown:sum(packetBytes) 0
scalar RedMarkerNetwork.sender1.lo[0] packetDropNoCarrier:count 0
scalar RedMarkerNetwork.sender1.lo[0] packetDropNoCarrier:sum(packetBytes) 0
scalar RedMarkerNetwork.sender1.eth[0].queue queueLength:last 0
scalar RedMarkerNetwork.sender1.eth[0].queue queueLength:max 2
scalar RedMarkerNetwork.sender1.eth[0].queue queueLength:timeavg 0.0020327263999999766
scalar RedMarkerNetwork.sender1.eth[0].queue queueBitLength:last 0
scalar RedMarkerNetwork.sender1.eth[0].queue queueBitLength:max 12144
scalar RedMarkerNetwork.sender1.eth[0].queue queueBitLength:timeavg 4.7173451647999718
scalar RedMarkerNetwork.sender1.eth[0].queue outgoingPackets:count 6605
scalar RedMarkerNetwork.sender1.eth[0].queue outgoingPacketLengths:sum 45007824
scalar RedMarkerNetwork.sender1.eth[0].queue incomingPackets:count 6605
scalar RedMarkerNetwork.sender1.eth[0].queue incomingPacketLengths:sum 45007824
scalar RedMarkerNetwork.sender1.eth[0].queue droppedPacketsQueueOverflow:count 0
scalar RedMarkerNetwork.sender1.eth[0].queue droppedPacketLengthsQueueOverflow:sum 0
scalar RedMarkerNetwork.sender1.eth[0].mac "simulated time" 100
scalar RedMarkerNetwork.sender1.eth[0].mac full-duplex 1
scalar RedMarkerNetwork.sender1.eth[0].mac "frames/sec sent" 66.049999999999997
scalar RedMarkerNetwork.sender1.eth[0].mac "frames/sec rcvd" 66.040000000000006
scalar RedMarkerNetwork.sender1.eth[0].mac "bits/sec sent" 450079.28000000003
scalar RedMarkerNetwork.sender1.eth[0].mac "bits/sec rcvd" 33812.639999999999
scalar RedMarkerNetwork.sender1.eth[0].mac "rx channel idle (%)" 99.9619608
scalar RedMarkerNetwork.sender1.eth[0].mac "rx channel utilization (%)" 0.038039200000000002
scalar RedMarkerNetwork.sender1.eth[0].mac rxPausePkUnits:count 0
scalar RedMarkerNetwork.sender1.eth[0].mac rxPausePkUnits:sum 0
scalar RedMarkerNetwork.sender1.eth[0].mac txPausePkUnits:count 0
scalar RedMarkerNetwork.sender1.eth[0].mac txPausePkUnits:sum 0
scalar RedMarkerNetwork.sender1.eth[0].mac rxPkOk:count 6604
scalar RedMarkerNetwork.sender1.eth[0].mac rxPkOk:sum(packetBytes) 422658
scalar RedMarkerNetwork.sender1.eth[0].mac txPk:count 6605
scalar RedMarkerNetwork.sender1.eth[0].mac txPk:sum(packetBytes) 5625991
scalar RedMarkerNetwork.sender1.eth[0].mac packetReceivedFromUpper:count 6605
scalar RedMarkerNetwork.sender1.eth[0].mac packetReceivedFromUpper:sum(packetBytes) 5625978
scalar RedMarkerNetwork.sender1.eth[0].mac passedUpPk:count 6604
scalar RedMarkerNetwork.sender1.eth[0].mac passedUpPk:sum(packetBytes) 422658
scalar RedMarkerNetwork.sender1.eth[0].mac packetDropIncorrectlyReceived:count 0
scalar RedMarkerNetwork.sender1.eth[0].mac packetDropIncorrectlyReceived:sum(packetBytes) 0
scalar RedMarkerNetwork.sender1.eth[0].mac packetDropInterfaceDown:count 0
scalar RedMarkerNetwork.sender1.eth[0].mac packetDropInterfaceDown:sum(packetBytes) 0
scalar RedMarkerNetwork.sender1.eth[0].mac packetDropNotAddressedToUs:count 0
scalar RedMarkerNetwork.sender1.eth[0].mac packetDropNotAddressedToUs:sum(packetBytes) 0
scalar RedMarkerNetwork.sender1.eth[0] packetDropInterfaceDown:count 0
scalar RedMarkerNetwork.sender1.eth[0] packetDropInterfaceDown:sum(packetBytes) 0
scalar RedMarkerNetwork.sender1.eth[0] packetDropNoCarrier:count 0
scalar RedMarkerNetwork.sender1.eth[0] packetDropNoCarrier:sum(packetBytes) 0
scalar RedMarkerNetwork.sender1.ipv4.ip packetDropAddressResolutionFailed:count 0
scalar RedMarkerNetwork.sender1.ipv4.ip packetDropAddressResolutionFailed:sum(packetBytes) 0
scalar RedMarkerNetwork.sender1.ipv4.ip packetDropHopLimitReached:count 0
scalar RedMarkerNetwork.sender1.ipv4.ip packetDropHopLimitReached:sum(packetBytes) 0
scalar RedMarkerNetwork.sender1.ipv4.ip packetDropForwardingDisabled:count 0
scalar RedMarkerNetwork.sender1.ipv4.ip packetDropForwardingDisabled:sum(packetBytes) 0
scalar RedMarkerNetwork.sender1.ipv4.ip packetDropLifetimeExpired:count 0
scalar RedMarkerNetwork.sender1.ipv4.ip packetDropLifetimeExpired:sum(packetBytes) 0
scalar RedMarkerNetwork.sender1.ipv4.ip packetDropNoInterfaceFound:count 0
scalar RedMarkerNetwork.sender1.ipv4.ip packetDropNoInterfaceFound:sum(packetBytes) 0
scalar RedMarkerNetwork.sender1.ipv4.ip packetDropNoRouteFound:count 0
scalar RedMarkerNetwork.sender1.ipv4.ip packetDropNoRouteFound:sum(packetBytes) 0
scalar RedMarkerNetwork.sender1.ipv4.ip packetDropUndefined:count 0
scalar RedMarkerNetwork.sender1.ipv4.ip packetDropUndefined:sum(packetBytes) 0
scalar RedMarkerNetwork.sender1.udp packetReceived:count 0
scalar RedMarkerNetwork.sender1.udp packetReceived:sum(packetBytes) 0
scalar RedMarkerNetwork.sender1.udp packetSent:count 0
scalar RedMarkerNetwork.sender1.udp packetSent:sum(packetBytes) 0
scalar RedMarkerNetwork.sender1.udp passedUpPk:count 0
scalar RedMarkerNetwork.sender1.udp droppedPkWrongPort:count 0
scalar RedMarkerNetwork.sender1.udp droppedPkBadChecksum:count 0
scalar RedMarkerNetwork.sender1.app[0] bytesRcvd 0
scalar RedMarkerNetwork.sender1.app[0] bytesSent 5242880
scalar RedMarkerNetwork.sender1.app[0] packetReceived:count 0
scalar RedMarkerNetwork.sender1.app[0] packetReceived:sum(packetBytes) 0
scalar RedMarkerNetwork.sender1.app[0] packetSent:count 1
scalar RedMarkerNetwork.sender1.app[0] packetSent:sum(packetBytes) 5242880
scalar RedMarkerNetwork.receiver1.ethernet pauseSent:count 0
scalar RedMarkerNetwork.receiver1.ethernet pauseSent:sum 0
scalar RedMarkerNetwork.receiver1.ethernet decapPk:count 6605
scalar RedMarkerNetwork.receiver1.ethernet decapPk:sum(packetBytes) 5507101
scalar RedMarkerNetwork.receiver1.ethernet encapPk:count 6604
scalar RedMarkerNetwork.receiver1.ethernet encapPk:sum(packetBytes) 264168
scalar RedMarkerNetwork.receiver1.lo[0].lo rcvdPkFromHl:count 0
scalar RedMarkerNetwork.receiver1.lo[0].lo rcvdPkFromHl:sum(packetBytes) 0
scalar RedMarkerNetwork.receiver1.lo[0].lo passedUpPk:count 0
scalar RedMarkerNetwork.receiver1.lo[0].lo passedUpPk:sum(packetBytes) 0
scalar RedMarkerNetwork.receiver1.lo[0] packetDropInterfaceDown:count 0
scalar RedMarkerNetwork.receiver1.lo[0] packetDropInterfaceDown:sum(packetBytes) 0
scalar RedMarkerNetwork.receiver1.lo[0] packetDropNoCarrier:count 0
scalar RedMarkerNetwork.receiver1.lo[0] packetDropNoCarrier:sum(packetBytes) 0
scalar RedMarkerNetwork.receiver1.eth[0].queue queueLength:last 0
scalar RedMarkerNetwork.receiver1.eth[0].queue queueLength:max 1
scalar RedMarkerNetwork.receiver1.eth[0].queue queueLength:timeavg 6.7200000000000006e-08
scalar RedMarkerNetwork.receiver1.eth[0].queue queueBitLength:last 0
scalar RedMarkerNetwork.receiver1.eth[0].queue queueBitLength:max 464
scalar RedMarkerNetwork.receiver1.eth[0].queue queueBitLength:timeavg 3.1180799999999998e-05
scalar RedMarkerNetwork.receiver1.eth[0].queue outgoingPackets:count 6604
scalar RedMarkerNetwork.receiver1.eth[0].queue outgoingPacketLengths:sum 3064320
scalar RedMarkerNetwork.receiver1.eth[0].queue incomingPackets:count 6604
scalar RedMarkerNetwork.receiver1.eth[0].queue incomingPacketLengths:sum 3064320
scalar RedMarkerNetwork.receiver1.eth[0].queue droppedPacketsQueueOverflow:count 0
scalar RedMarkerNetwork.receiver1.eth[0].queue droppedPacketLengthsQueueOverflow:sum 0
scalar RedMarkerNetwork.receiver1.eth[0].mac "simulated time" 100
scalar RedMarkerNetwork.receiver1.eth[0].mac full-duplex 1
scalar RedMarkerNetwork.receiver1.eth[0].mac "frames/sec sent" 66.040000000000006
scalar RedMarkerNetwork.receiver1.eth[0].mac "frames/sec rcvd" 66.049999999999997
scalar RedMarkerNetwork.receiver1.eth[0].mac "bits/sec sent" 33812.639999999999
scalar RedMarkerNetwork.receiver1.eth[0].mac "bits/sec rcvd" 450079.28000000003
scalar RedMarkerNetwork.receiver1.eth[0].mac "rx channel idle (%)" 99.54569352
scalar RedMarkerNetwork.receiver1.eth[0].mac "rx channel utilization (%)" 0.45430647999999996
scalar RedMarkerNetwork.receiver1.eth[0].mac rxPausePkUnits:count 0
scalar RedMarkerNetwork.receiver1.eth[0].mac rxPausePkUnits:sum 0
scalar RedMarkerNetwork.receiver1.eth[0].mac txPausePkUnits:count 0
scalar RedMarkerNetwork.receiver1.eth[0].mac txPausePkUnits:sum 0
scalar RedMarkerNetwork.receiver1.eth[0].mac rxPkOk:count 6605
scalar RedMarkerNetwork.receiver1.eth[0].mac rxPkOk:sum(packetBytes) 5625991
scalar RedMarkerNetwork.receiver1.eth[0].mac txPk:count 6604
scalar RedMarkerNetwork.receiver1.eth[0].mac txPk:sum(packetBytes) 422658
scalar RedMarkerNetwork.receiver1.eth[0].mac packetReceivedFromUpper:count 6604
scalar RedMarkerNetwork.receiver1.eth[0].mac packetReceivedFromUpper:sum(packetBytes) 383040
scalar RedMarkerNetwork.receiver1.eth[0].mac passedUpPk:count 6605
scalar RedMarkerNetwork.receiver1.eth[0].mac passedUpPk:sum(packetBytes) 5625991
scalar RedMarkerNetwork.receiver1.eth[0].mac packetDropIncorrectlyReceived:count 0
scalar RedMarkerNetwork.receiver1.eth[0].mac packetDropIncorrectlyReceived:sum(packetBytes) 0
scalar RedMarkerNetwork.receiver1.eth[0].mac packetDropInterfaceDown:count 0
scalar RedMarkerNetwork.receiver1.eth[0].mac packetDropInterfaceDown:sum(packetBytes) 0
scalar RedMarkerNetwork.receiver1.eth[0].mac packetDropNotAddressedToUs:count 0
scalar RedMarkerNetwork.receiver1.eth[0].mac packetDropNotAddressedToUs:sum(packetBytes) 0
scalar RedMarkerNetwork.receiver1.eth[0] packetDropInterfaceDown:count 0
scalar RedMarkerNetwork.receiver1.eth[0] packetDropInterfaceDown:sum(packetBytes) 0
scalar RedMarkerNetwork.receiver1.eth[0] packetDropNoCarrier:count 0
scalar RedMarkerNetwork.receiver1.eth[0] packetDropNoCarrier:sum(packetBytes) 0
scalar RedMarkerNetwork.receiver1.ipv4.ip packetDropAddressResolutionFailed:count 0
scalar RedMarkerNetwork.receiver1.ipv4.ip packetDropAddressResolutionFailed:sum(packetBytes) 0
scalar RedMarkerNetwork.receiver1.ipv4.ip packetDropHopLimitReached:count 0
scalar RedMarkerNetwork.receiver1.ipv4.ip packetDropHopLimitReached:sum(packetBytes) 0
scalar RedMarkerNetwork.receiver1.ipv4.ip packetDropForwardingDisabled:count 0
scalar RedMarkerNetwork.receiver1.ipv4.ip packetDropForwardingDisabled:sum(packetBytes) 0
scalar RedMarkerNetwork.receiver1.ipv4.ip packetDropLifetimeExpired:count 0
scalar RedMarkerNetwork.receiver1.ipv4.ip packetDropLifetimeExpired:sum(packetBytes) 0
scalar RedMarkerNetwork.receiver1.ipv4.ip packetDropNoInterfaceFound:count 0
scalar RedMarkerNetwork.receiver1.ipv4.ip packetDropNoInterfaceFound:sum(packetBytes) 0
scalar RedMarkerNetwork.receiver1.ipv4.ip packetDropNoRouteFound:count 0
scalar RedMarkerNetwork.receiver1.ipv4.ip packetDropNoRouteFound:sum(packetBytes) 0
scalar RedMarkerNetwork.receiver1.ipv4.ip packetDropUndefined:count 0
scalar RedMarkerNetwork.receiver1.ipv4.ip packetDropUndefined:sum(packetBytes) 0
scalar RedMarkerNetwork.receiver1.udp packetReceived:count 0
scalar RedMarkerNetwork.receiver1.udp packetReceived:sum(packetBytes) 0
scalar RedMarkerNetwork.receiver1.udp packetSent:count 0
scalar RedMarkerNetwork.receiver1.udp packetSent:sum(packetBytes) 0
scalar RedMarkerNetwork.receiver1.udp passedUpPk:count 0
scalar RedMarkerNetwork.receiver1.udp droppedPkWrongPort:count 0
scalar RedMarkerNetwork.receiver1.udp droppedPkBadChecksum:count 0
scalar RedMarkerNetwork.receiver1.app[0] bytesRcvd 5242880
scalar RedMarkerNetwork.receiver1.app[0] packetReceived:count 6602
scalar RedMarkerNetwork.receiver1.app[0] packetReceived:sum(packetBytes) 5242880
scalar RedMarkerNetwork.routerCore1.eth[0].queue.red outgoingPacketLengths:histogram:count 6604
scalar RedMarkerNetwork.routerCore1.eth[0].queue.red outgoingPacketLengths:histogram:sumweights 6604
scalar RedMarkerNetwork.routerCore1.eth[0].queue.red outgoingPacketLengths:histogram:mean 464.00969109630529
scalar RedMarkerNetwork.routerCore1.eth[0].queue.red outgoingPacketLengths:histogram:stddev 0.7875469278284597
scalar RedMarkerNetwork.routerCore1.eth[0].queue.red outgoingPacketLengths:histogram:min 464
scalar RedMarkerNetwork.routerCore1.eth[0].queue.red outgoingPacketLengths:histogram:max 528
scalar RedMarkerNetwork.routerCore1.eth[0].queue.red outgoingPacketLengths:histogram:numbins 48
scalar RedMarkerNetwork.routerCore1.eth[0].queue.red outgoingPacketLengths:histogram:rangemin 448
scalar RedMarkerNetwork.routerCore1.eth[0].queue.red outgoingPacketLengths:histogram:rangemax 544
scalar RedMarkerNetwork.routerCore1.eth[0].queue.red outgoingPacketLengths:histogram:underflows 0
scalar RedMarkerNetwork.routerCore1.eth[0].queue.red outgoingPacketLengths:histogram:overflows 0
scalar RedMarkerNetwork.routerCore1.eth[0].queue.red flowOutgoingPacketLengths:histogram:count 0
scalar RedMarkerNetwork.routerCore1.eth[0].queue.red flowOutgoingPacketLengths:histogram:sumweights 0
scalar RedMarkerNetwork.routerCore1.eth[0].queue.red flowOutgoingPacketLengths:histogram:mean -nan
scalar RedMarkerNetwork.routerCore1.eth[0].queue.red flowOutgoingPacketLengths:histogram:stddev nan
scalar RedMarkerNetwork.routerCore1.eth[0].queue.red flowOutgoingPacketLengths:histogram:min nan
scalar RedMarkerNetwork.routerCore1.eth[0].queue.red flowOutgoingPacketLengths:histogram:max nan
scalar RedMarkerNetwork.routerCore1.eth[0].queue.red flowOutgoingPacketLengths:histogram:numbins 1
scalar RedMarkerNetwork.routerCore1.eth[0].queue.red flowOutgoingPacketLengths:histogram:rangemin 0
scalar RedMarkerNetwork.routerCore1.eth[0].queue.red flowOutgoingPacketLengths:histogram:rangemax 1
scalar RedMarkerNetwork.routerCore1.eth[0].queue.red flowOutgoingPacketLengths:histogram:underflows 0
scalar RedMarkerNetwork.routerCore1.eth[0].queue.red flowOutgoingPacketLengths:histogram:overflows 0
scalar RedMarkerNetwork.routerCore1.eth[0].queue.red incomingPacketLengths:histogram:count 6604
scalar RedMarkerNetwork.routerCore1.eth[0].queue.red incomingPacketLengths:histogram:sumweights 6604
scalar RedMarkerNetwork.routerCore1.eth[0].queue.red incomingPacketLengths:histogram:mean 464.00969109630529
scalar RedMarkerNetwork.routerCore1.eth[0].queue.red incomingPacketLengths:histogram:stddev 0.7875469278284597
scalar RedMarkerNetwork.routerCore1.eth[0].queue.red incomingPacketLengths:histogram:min 464
scalar RedMarkerNetwork.routerCore1.eth[0].queue.red incomingPacketLengths:histogram:max 528
scalar RedMarkerNetwork.routerCore1.eth[0].queue.red incomingPacketLengths:histogram:numbins 48
scalar RedMarkerNetwork.routerCore1.eth[0].queue.red incomingPacketLengths:histogram:rangemin 448
scalar RedMarkerNetwork.routerCore1.eth[0].queue.red incomingPacketLengths:histogram:rangemax 544
scalar RedMarkerNetwork.routerCore1.eth[0].queue.red incomingPacketLengths:histogram:underflows 0
scalar RedMarkerNetwork.routerCore1.eth[0].queue.red incomingPacketLengths:histogram:overflows 0
scalar RedMarkerNetwork.routerCore1.eth[0].queue.red flowIncomingPacketLengths:histogram:count 0
scalar RedMarkerNetwork.routerCore1.eth[0].queue.red flowIncomingPacketLengths:histogram:sumweights 0
scalar RedMarkerNetwork.routerCore1.eth[0].queue.red flowIncomingPacketLengths:histogram:mean -nan
scalar RedMarkerNetwork.routerCore1.eth[0].queue.red flowIncomingPacketLengths:histogram:stddev nan
scalar RedMarkerNetwork.routerCore1.eth[0].queue.red flowIncomingPacketLengths:histogram:min nan
scalar RedMarkerNetwork.routerCore1.eth[0].queue.red flowIncomingPacketLengths:histogram:max nan
scalar RedMarkerNetwork.routerCore1.eth[0].queue.red flowIncomingPacketLengths:histogram:numbins 1
scalar RedMarkerNetwork.routerCore1.eth[0].queue.red flowIncomingPacketLengths:histogram:rangemin 0
scalar RedMarkerNetwork.routerCore1.eth[0].queue.red flowIncomingPacketLengths:histogram:rangemax 1
scalar RedMarkerNetwork.routerCore1.eth[0].queue.red flowIncomingPacketLengths:histogram:underflows 0
scalar RedMarkerNetwork.routerCore1.eth[0].queue.red flowIncomingPacketLengths:histogram:overflows 0
scalar RedMarkerNetwork.routerCore1.eth[0].queue.red droppedPacketLengths:histogram:count 0
scalar RedMarkerNetwork.routerCore1.eth[0].queue.red droppedPacketLengths:histogram:sumweights 0
scalar RedMarkerNetwork.routerCore1.eth[0].queue.red droppedPacketLengths:histogram:mean -nan
scalar RedMarkerNetwork.routerCore1.eth[0].queue.red droppedPacketLengths:histogram:stddev nan
scalar RedMarkerNetwork.routerCore1.eth[0].queue.red droppedPacketLengths:histogram:min nan
scalar RedMarkerNetwork.routerCore1.eth[0].queue.red droppedPacketLengths:histogram:max nan
scalar RedMarkerNetwork.routerCore1.eth[0].queue.red droppedPacketLengths:histogram:numbins 1
scalar RedMarkerNetwork.routerCore1.eth[0].queue.red droppedPacketLengths:histogram:rangemin 0
scalar RedMarkerNetwork.routerCore1.eth[0].queue.red droppedPacketLengths:histogram:rangemax 1
scalar RedMarkerNetwork.routerCore1.eth[0].queue.red droppedPacketLengths:histogram:underflows 0
scalar RedMarkerNetwork.routerCore1.eth[0].queue.red droppedPacketLengths:histogram:overflows 0
scalar RedMarkerNetwork.routerCore1.eth[0].queue.red flowDroppedPacketLengths:histogram:count 0
scalar RedMarkerNetwork.routerCore1.eth[0].queue.red flowDroppedPacketLengths:histogram:sumweights 0
scalar RedMarkerNetwork.routerCore1.eth[0].queue.red flowDroppedPacketLengths:histogram:mean -nan
scalar RedMarkerNetwork.routerCore1.eth[0].queue.red flowDroppedPacketLengths:histogram:stddev nan
scalar RedMarkerNetwork.routerCore1.eth[0].queue.red flowDroppedPacketLengths:histogram:min nan
scalar RedMarkerNetwork.routerCore1.eth[0].queue.red flowDroppedPacketLengths:histogram:max nan
scalar RedMarkerNetwork.routerCore1.eth[0].queue.red flowDroppedPacketLengths:histogram:numbins 1
scalar RedMarkerNetwork.routerCore1.eth[0].queue.red flowDroppedPacketLengths:histogram:rangemin 0
scalar RedMarkerNetwork.routerCore1.eth[0].queue.red flowDroppedPacketLengths:histogram:rangemax 1
scalar RedMarkerNetwork.routerCore1.eth[0].queue.red flowDroppedPacketLengths:histogram:underflows 0
scalar RedMarkerNetwork.routerCore1.eth[0].queue.red flowDroppedPacketLengths:histogram:overflows 0
scalar RedMarkerNetwork.routerCore1.eth[0].queue.fifo queueingTime:histogram:count 6604
scalar RedMarkerNetwork.routerCore1.eth[0].queue.fifo queueingTime:histogram:sumweights 6604
scalar RedMarkerNetwork.routerCore1.eth[0].queue.fifo queueingTime:histogram:mean 0
scalar RedMarkerNetwork.routerCore1.eth[0].queue.fifo queueingTime:histogram:stddev 0
scalar RedMarkerNetwork.routerCore1.eth[0].queue.fifo queueingTime:histogram:min 0
scalar RedMarkerNetwork.routerCore1.eth[0].queue.fifo queueingTime:histogram:max 0
scalar RedMarkerNetwork.routerCore1.eth[0].queue.fifo queueingTime:histogram:numbins 50
scalar RedMarkerNetwork.routerCore1.eth[0].queue.fifo queueingTime:histogram:rangemin -0.5
scalar RedMarkerNetwork.routerCore1.eth[0].queue.fifo queueingTime:histogram:rangemax 0.5
scalar RedMarkerNetwork.routerCore1.eth[0].queue.fifo queueingTime:histogram:underflows 0
scalar RedMarkerNetwork.routerCore1.eth[0].queue.fifo queueingTime:histogram:overflows 0
scalar RedMarkerNetwork.routerCore1.eth[0].queue.fifo outgoingPacketLengths:histogram:count 6604
scalar RedMarkerNetwork.routerCore1.eth[0].queue.fifo outgoingPacketLengths:histogram:sumweights 6604
scalar RedMarkerNetwork.routerCore1.eth[0].queue.fifo outgoingPacketLengths:histogram:mean 464.00969109630529
scalar RedMarkerNetwork.routerCore1.eth[0].queue.fifo outgoingPacketLengths:histogram:stddev 0.7875469278284597
scalar RedMarkerNetwork.routerCore1.eth[0].queue.fifo outgoingPacketLengths:histogram:min 464
scalar RedMarkerNetwork.routerCore1.eth[0].queue.fifo outgoingPacketLengths:histogram:max 528
scalar RedMarkerNetwork.routerCore1.eth[0].queue.fifo outgoingPacketLengths:histogram:numbins 48
scalar RedMarkerNetwork.routerCore1.eth[0].queue.fifo outgoingPacketLengths:histogram:rangemin 448
scalar RedMarkerNetwork.routerCore1.eth[0].queue.fifo outgoingPacketLengths:histogram:rangemax 544
scalar RedMarkerNetwork.routerCore1.eth[0].queue.fifo outgoingPacketLengths:histogram:underflows 0
scalar RedMarkerNetwork.routerCore1.eth[0].queue.fifo outgoingPacketLengths:histogram:overflows 0
scalar RedMarkerNetwork.routerCore1.eth[0].queue.fifo flowQueueingTime:histogram:count 0
scalar RedMarkerNetwork.routerCore1.eth[0].queue.fifo flowQueueingTime:histogram:sumweights 0
scalar RedMarkerNetwork.routerCore1.eth[0].queue.fifo flowQueueingTime:histogram:mean -nan
scalar RedMarkerNetwork.routerCore1.eth[0].queue.fifo flowQueueingTime:histogram:stddev nan
scalar RedMarkerNetwork.routerCore1.eth[0].queue.fifo flowQueueingTime:histogram:min nan
scalar RedMarkerNetwork.routerCore1.eth[0].queue.fifo flowQueueingTime:histogram:max nan
scalar RedMarkerNetwork.routerCore1.eth[0].queue.fifo flowQueueingTime:histogram:numbins 1
scalar RedMarkerNetwork.routerCore1.eth[0].queue.fifo flowQueueingTime:histogram:rangemin 0
scalar RedMarkerNetwork.routerCore1.eth[0].queue.fifo flowQueueingTime:histogram:rangemax 1
scalar RedMarkerNetwork.routerCore1.eth[0].queue.fifo flowQueueingTime:histogram:underflows 0
scalar RedMarkerNetwork.routerCore1.eth[0].queue.fifo flowQueueingTime:histogram:overflows 0
scalar RedMarkerNetwork.routerCore1.eth[0].queue.fifo incomingPacketLengths:histogram:count 6604
scalar RedMarkerNetwork.routerCore1.eth[0].queue.fifo incomingPacketLengths:histogram:sumweights 6604
scalar RedMarkerNetwork.routerCore1.eth[0].queue.fifo incomingPacketLengths:histogram:mean 464.00969109630529
scalar RedMarkerNetwork.routerCore1.eth[0].queue.fifo incomingPacketLengths:histogram:stddev 0.7875469278284597
scalar RedMarkerNetwork.routerCore1.eth[0].queue.fifo incomingPacketLengths:histogram:min 464
scalar RedMarkerNetwork.routerCore1.eth[0].queue.fifo incomingPacketLengths:histogram:max 528
scalar RedMarkerNetwork.routerCore1.eth[0].queue.fifo incomingPacketLengths:histogram:numbins 48
scalar RedMarkerNetwork.routerCore1.eth[0].queue.fifo incomingPacketLengths:histogram:rangemin 448
scalar RedMarkerNetwork.routerCore1.eth[0].queue.fifo incomingPacketLengths:histogram:rangemax 544
scalar RedMarkerNetwork.routerCore1.eth[0].queue.fifo incomingPacketLengths:histogram:underflows 0
scalar RedMarkerNetwork.routerCore1.eth[0].queue.fifo incomingPacketLengths:histogram:overflows 0
scalar RedMarkerNetwork.routerCore1.eth[0].queue queueingTime:histogram:count 6604
scalar RedMarkerNetwork.routerCore1.eth[0].queue queueingTime:histogram:sumweights 6604
scalar RedMarkerNetwork.routerCore1.eth[0].queue queueingTime:histogram:mean 0
scalar RedMarkerNetwork.routerCore1.eth[0].queue queueingTime:histogram:stddev 0
scalar RedMarkerNetwork.routerCore1.eth[0].queue queueingTime:histogram:min 0
scalar RedMarkerNetwork.routerCore1.eth[0].queue queueingTime:histogram:max 0
scalar RedMarkerNetwork.routerCore1.eth[0].queue queueingTime:histogram:numbins 50
scalar RedMarkerNetwork.routerCore1.eth[0].queue queueingTime:histogram:rangemin -0.5
scalar RedMarkerNetwork.routerCore1.eth[0].queue queueingTime:histogram:rangemax 0.5
scalar RedMarkerNetwork.routerCore1.eth[0].queue queueingTime:histogram:underflows 0
scalar RedMarkerNetwork.routerCore1.eth[0].queue queueingTime:histogram:overflows 0
scalar RedMarkerNetwork.routerCore1.eth[0].queue outgoingPacketLengths:histogram:count 6604
scalar RedMarkerNetwork.routerCore1.eth[0].queue outgoingPacketLengths:histogram:sumweights 6604
scalar RedMarkerNetwork.routerCore1.eth[0].queue outgoingPacketLengths:histogram:mean 464.00969109630529
scalar RedMarkerNetwork.routerCore1.eth[0].queue outgoingPacketLengths:histogram:stddev 0.7875469278284597
scalar RedMarkerNetwork.routerCore1.eth[0].queue outgoingPacketLengths:histogram:min 464
scalar RedMarkerNetwork.routerCore1.eth[0].queue outgoingPacketLengths:histogram:max 528
scalar RedMarkerNetwork.routerCore1.eth[0].queue outgoingPacketLengths:histogram:numbins 48
scalar RedMarkerNetwork.routerCore1.eth[0].queue outgoingPacketLengths:histogram:rangemin 448
scalar RedMarkerNetwork.routerCore1.eth[0].queue outgoingPacketLengths:histogram:rangemax 544
scalar RedMarkerNetwork.routerCore1.eth[0].queue outgoingPacketLengths:histogram:underflows 0
scalar RedMarkerNetwork.routerCore1.eth[0].queue outgoingPacketLengths:histogram:overflows 0
scalar RedMarkerNetwork.routerCore1.eth[0].queue flowQueueingTime:histogram:count 0
scalar RedMarkerNetwork.routerCore1.eth[0].queue flowQueueingTime:histogram:sumweights 0
scalar RedMarkerNetwork.routerCore1.eth[0].queue flowQueueingTime:histogram:mean -nan
scalar RedMarkerNetwork.routerCore1.eth[0].queue flowQueueingTime:histogram:stddev nan
scalar RedMarkerNetwork.routerCore1.eth[0].queue flowQueueingTime:histogram:min nan
scalar RedMarkerNetwork.routerCore1.eth[0].queue flowQueueingTime:histogram:max nan
scalar RedMarkerNetwork.routerCore1.eth[0].queue flowQueueingTime:histogram:numbins 1
scalar RedMarkerNetwork.routerCore1.eth[0].queue flowQueueingTime:histogram:rangemin 0
scalar RedMarkerNetwork.routerCore1.eth[0].queue flowQueueingTime:histogram:rangemax 1
scalar RedMarkerNetwork.routerCore1.eth[0].queue flowQueueingTime:histogram:underflows 0
scalar RedMarkerNetwork.routerCore1.eth[0].queue flowQueueingTime:histogram:overflows 0
scalar RedMarkerNetwork.routerCore1.eth[0].queue incomingPacketLengths:histogram:count 0
scalar RedMarkerNetwork.routerCore1.eth[0].queue incomingPacketLengths:histogram:sumweights 0
scalar RedMarkerNetwork.routerCore1.eth[0].queue incomingPacketLengths:histogram:mean -nan
scalar RedMarkerNetwork.routerCore1.eth[0].queue incomingPacketLengths:histogram:stddev nan
scalar RedMarkerNetwork.routerCore1.eth[0].queue incomingPacketLengths:histogram:min nan
scalar RedMarkerNetwork.routerCore1.eth[0].queue incomingPacketLengths:histogram:max nan
scalar RedMarkerNetwork.routerCore1.eth[0].queue incomingPacketLengths:histogram:numbins 1
scalar RedMarkerNetwork.routerCore1.eth[0].queue incomingPacketLengths:histogram:rangemin 0
scalar RedMarkerNetwork.routerCore1.eth[0].queue incomingPacketLengths:histogram:rangemax 1
scalar RedMarkerNetwork.routerCore1.eth[0].queue incomingPacketLengths:histogram:underflows 0
scalar RedMarkerNetwork.routerCore1.eth[0].queue incomingPacketLengths:histogram:overflows 0
scalar RedMarkerNetwork.routerCore1.eth[0].mac throughput:histogram:count 1017
scalar RedMarkerNetwork.routerCore1.eth[0].mac throughput:histogram:sumweights 1017
scalar RedMarkerNetwork.routerCore1.eth[0].mac throughput:histogram:mean 50214.432180364332
scalar RedMarkerNetwork.routerCore1.eth[0].mac throughput:histogram:stddev 190437.63640880593
scalar RedMarkerNetwork.routerCore1.eth[0].mac throughput:histogram:min 0
scalar RedMarkerNetwork.routerCore1.eth[0].mac throughput:histogram:max 837598.88320148911
scalar RedMarkerNetwork.routerCore1.eth[0].mac throughput:histogram:numbins 85
scalar RedMarkerNetwork.routerCore1.eth[0].mac throughput:histogram:rangemin -5000
scalar RedMarkerNetwork.routerCore1.eth[0].mac throughput:histogram:rangemax 845000
scalar RedMarkerNetwork.routerCore1.eth[0].mac throughput:histogram:underflows 0
scalar RedMarkerNetwork.routerCore1.eth[0].mac throughput:histogram:overflows 0
scalar RedMarkerNetwork.routerCore1.eth[0].mac utilization:histogram:count 1017
scalar RedMarkerNetwork.routerCore1.eth[0].mac utilization:histogram:sumweights 1017
scalar RedMarkerNetwork.routerCore1.eth[0].mac utilization:histogram:mean 0.050212407989839156
scalar RedMarkerNetwork.routerCore1.eth[0].mac utilization:histogram:stddev 0.19041362228586184
scalar RedMarkerNetwork.routerCore1.eth[0].mac utilization:histogram:min 0
scalar RedMarkerNetwork.routerCore1.eth[0].mac utilization:histogram:max 0.83759888320149023
scalar RedMarkerNetwork.routerCore1.eth[0].mac utilization:histogram:numbins 67
scalar RedMarkerNetwork.routerCore1.eth[0].mac utilization:histogram:rangemin -0.5
scalar RedMarkerNetwork.routerCore1.eth[0].mac utilization:histogram:rangemax 0.84000000000000008
scalar RedMarkerNetwork.routerCore1.eth[0].mac utilization:histogram:underflows 0
scalar RedMarkerNetwork.routerCore1.eth[0].mac utilization:histogram:overflows 0
scalar RedMarkerNetwork.routerCore1.eth[1].queue.red outgoingPacketLengths:histogram:count 6605
scalar RedMarkerNetwork.routerCore1.eth[1].queue.red outgoingPacketLengths:histogram:sumweights 6605
scalar RedMarkerNetwork.routerCore1.eth[1].queue.red outgoingPacketLengths:histogram:mean 6814.2049962149886
scalar RedMarkerNetwork.routerCore1.eth[1].queue.red outgoingPacketLengths:histogram:stddev 3912.7963792557784
scalar RedMarkerNetwork.routerCore1.eth[1].queue.red outgoingPacketLengths:histogram:min 464
scalar RedMarkerNetwork.routerCore1.eth[1].queue.red outgoingPacketLengths:histogram:max 12144
scalar RedMarkerNetwork.routerCore1.eth[1].queue.red outgoingPacketLengths:histogram:numbins 76
scalar RedMarkerNetwork.routerCore1.eth[1].queue.red outgoingPacketLengths:histogram:rangemin 0
scalar RedMarkerNetwork.routerCore1.eth[1].queue.red outgoingPacketLengths:histogram:rangemax 15200
scalar RedMarkerNetwork.routerCore1.eth[1].queue.red outgoingPacketLengths:histogram:underflows 0
scalar RedMarkerNetwork.routerCore1.eth[1].queue.red outgoingPacketLengths:histogram:overflows 0
scalar RedMarkerNetwork.routerCore1.eth[1].queue.red flowOutgoingPacketLengths:histogram:count 0
scalar RedMarkerNetwork.routerCore1.eth[1].queue.red flowOutgoingPacketLengths:histogram:sumweights 0
scalar RedMarkerNetwork.routerCore1.eth[1].queue.red flowOutgoingPacketLengths:histogram:mean -nan
scalar RedMarkerNetwork.routerCore1.eth[1].queue.red flowOutgoingPacketLengths:histogram:stddev nan
scalar RedMarkerNetwork.routerCore1.eth[1].queue.red flowOutgoingPacketLengths:histogram:min nan
scalar RedMarkerNetwork.routerCore1.eth[1].queue.red flowOutgoingPacketLengths:histogram:max nan
scalar RedMarkerNetwork.routerCore1.eth[1].queue.red flowOutgoingPacketLengths:histogram:numbins 1
scalar RedMarkerNetwork.routerCore1.eth[1].queue.red flowOutgoingPacketLengths:histogram:rangemin 0
scalar RedMarkerNetwork.routerCore1.eth[1].queue.red flowOutgoingPacketLengths:histogram:rangemax 1
scalar RedMarkerNetwork.routerCore1.eth[1].queue.red flowOutgoingPacketLengths:histogram:underflows 0
scalar RedMarkerNetwork.routerCore1.eth[1].queue.red flowOutgoingPacketLengths:histogram:overflows 0
scalar RedMarkerNetwork.routerCore1.eth[1].queue.red incomingPacketLengths:histogram:count 6605
scalar RedMarkerNetwork.routerCore1.eth[1].queue.red incomingPacketLengths:histogram:sumweights 6605
scalar RedMarkerNetwork.routerCore1.eth[1].queue.red incomingPacketLengths:histogram:mean 6814.2049962149886
scalar RedMarkerNetwork.routerCore1.eth[1].queue.red incomingPacketLengths:histogram:stddev 3912.7963792557784
scalar RedMarkerNetwork.routerCore1.eth[1].queue.red incomingPacketLengths:histogram:min 464
scalar RedMarkerNetwork.routerCore1.eth[1].queue.red incomingPacketLengths:histogram:max 12144
scalar RedMarkerNetwork.routerCore1.eth[1].queue.red incomingPacketLengths:histogram:numbins 76
scalar RedMarkerNetwork.routerCore1.eth[1].queue.red incomingPacketLengths:histogram:rangemin 0
scalar RedMarkerNetwork.routerCore1.eth[1].queue.red incomingPacketLengths:histogram:rangemax 15200
scalar RedMarkerNetwork.routerCore1.eth[1].queue.red incomingPacketLengths:histogram:underflows 0
scalar RedMarkerNetwork.routerCore1.eth[1].queue.red incomingPacketLengths:histogram:overflows 0
scalar RedMarkerNetwork.routerCore1.eth[1].queue.red flowIncomingPacketLengths:histogram:count 0
scalar RedMarkerNetwork.routerCore1.eth[1].queue.red flowIncomingPacketLengths:histogram:sumweights 0
scalar RedMarkerNetwork.routerCore1.eth[1].queue.red flowIncomingPacketLengths:histogram:mean -nan
scalar RedMarkerNetwork.routerCore1.eth[1].queue.red flowIncomingPacketLengths:histogram:stddev nan
scalar RedMarkerNetwork.routerCore1.eth[1].queue.red flowIncomingPacketLengths:histogram:min nan
scalar RedMarkerNetwork.routerCore1.eth[1].queue.red flowIncomingPacketLengths:histogram:max nan
scalar RedMarkerNetwork.routerCore1.eth[1].queue.red flowIncomingPacketLengths:histogram:numbins 1
scalar RedMarkerNetwork.routerCore1.eth[1].queue.red flowIncomingPacketLengths:histogram:rangemin 0
scalar RedMarkerNetwork.routerCore1.eth[1].queue.red flowIncomingPacketLengths:histogram:rangemax 1
scalar RedMarkerNetwork.routerCore1.eth[1].queue.red flowIncomingPacketLengths:histogram:underflows 0
scalar RedMarkerNetwork.routerCore1.eth[1].queue.red flowIncomingPacketLengths:histogram:overflows 0
scalar RedMarkerNetwork.routerCore1.eth[1].queue.red droppedPacketLengths:histogram:count 0
scalar RedMarkerNetwork.routerCore1.eth[1].queue.red droppedPacketLengths:histogram:sumweights 0
scalar RedMarkerNetwork.routerCore1.eth[1].queue.red droppedPacketLengths:histogram:mean -nan
scalar RedMarkerNetwork.routerCore1.eth[1].queue.red droppedPacketLengths:histogram:stddev nan
scalar RedMarkerNetwork.routerCore1.eth[1].queue.red droppedPacketLengths:histogram:min nan
scalar RedMarkerNetwork.routerCore1.eth[1].queue.red droppedPacketLengths:histogram:max nan
scalar RedMarkerNetwork.routerCore1.eth[1].queue.red droppedPacketLengths:histogram:numbins 1
scalar RedMarkerNetwork.routerCore1.eth[1].queue.red droppedPacketLengths:histogram:rangemin 0
scalar RedMarkerNetwork.routerCore1.eth[1].queue.red droppedPacketLengths:histogram:rangemax 1
scalar RedMarkerNetwork.routerCore1.eth[1].queue.red droppedPacketLengths:histogram:underflows 0
scalar RedMarkerNetwork.routerCore1.eth[1].queue.red droppedPacketLengths:histogram:overflows 0
scalar RedMarkerNetwork.routerCore1.eth[1].queue.red flowDroppedPacketLengths:histogram:count 0
scalar RedMarkerNetwork.routerCore1.eth[1].queue.red flowDroppedPacketLengths:histogram:sumweights 0
scalar RedMarkerNetwork.routerCore1.eth[1].queue.red flowDroppedPacketLengths:histogram:mean -nan
scalar RedMarkerNetwork.routerCore1.eth[1].queue.red flowDroppedPacketLengths:histogram:stddev nan
scalar RedMarkerNetwork.routerCore1.eth[1].queue.red flowDroppedPacketLengths:histogram:min nan
scalar RedMarkerNetwork.routerCore1.eth[1].queue.red flowDroppedPacketLengths:histogram:max nan
scalar RedMarkerNetwork.routerCore1.eth[1].queue.red flowDroppedPacketLengths:histogram:numbins 1
scalar RedMarkerNetwork.routerCore1.eth[1].queue.red flowDroppedPacketLengths:histogram:rangemin 0
scalar RedMarkerNetwork.routerCore1.eth[1].queue.red flowDroppedPacketLengths:histogram:rangemax 1
scalar RedMarkerNetwork.routerCore1.eth[1].queue.red flowDroppedPacketLengths:histogram:underflows 0
scalar RedMarkerNetwork.routerCore1.eth[1].queue.red flowDroppedPacketLengths:histogram:overflows 0
scalar RedMarkerNetwork.routerCore1.eth[1].queue.fifo queueingTime:histogram:count 6605
scalar RedMarkerNetwork.routerCore1.eth[1].queue.fifo queueingTime:histogram:sumweights 6605
scalar RedMarkerNetwork.routerCore1.eth[1].queue.fifo queueingTime:histogram:mean 0.0020488975745647114
scalar RedMarkerNetwork.routerCore1.eth[1].queue.fifo queueingTime:histogram:stddev 0.0014239176824342576
scalar RedMarkerNetwork.routerCore1.eth[1].queue.fifo queueingTime:histogram:min 0
scalar RedMarkerNetwork.routerCore1.eth[1].queue.fifo queueingTime:histogram:max 0.018181280000000001
scalar RedMarkerNetwork.routerCore1.eth[1].queue.fifo queueingTime:histogram:numbins 46
scalar RedMarkerNetwork.routerCore1.eth[1].queue.fifo queueingTime:histogram:rangemin 0
scalar RedMarkerNetwork.routerCore1.eth[1].queue.fifo queueingTime:histogram:rangemax 0.023
scalar RedMarkerNetwork.routerCore1.eth[1].queue.fifo queueingTime:histogram:underflows 0
scalar RedMarkerNetwork.routerCore1.eth[1].queue.fifo queueingTime:histogram:overflows 0
scalar RedMarkerNetwork.routerCore1.eth[1].queue.fifo outgoingPacketLengths:histogram:count 6605
scalar RedMarkerNetwork.routerCore1.eth[1].queue.fifo outgoingPacketLengths:histogram:sumweights 6605
scalar RedMarkerNetwork.routerCore1.eth[1].queue.fifo outgoingPacketLengths:histogram:mean 6814.2049962149886
scalar RedMarkerNetwork.routerCore1.eth[1].queue.fifo outgoingPacketLengths:histogram:stddev 3912.7963792557784
scalar RedMarkerNetwork.routerCore1.eth[1].queue.fifo outgoingPacketLengths:histogram:min 464
scalar RedMarkerNetwork.routerCore1.eth[1].queue.fifo outgoingPacketLengths:histogram:max 12144
scalar RedMarkerNetwork.routerCore1.eth[1].queue.fifo outgoingPacketLengths:histogram:numbins 76
scalar RedMarkerNetwork.routerCore1.eth[1].queue.fifo outgoingPacketLengths:histogram:rangemin 0
scalar RedMarkerNetwork.routerCore1.eth[1].queue.fifo outgoingPacketLengths:histogram:rangemax 15200
scalar RedMarkerNetwork.routerCore1.eth[1].queue.fifo outgoingPacketLengths:histogram:underflows 0
scalar RedMarkerNetwork.routerCore1.eth[1].queue.fifo outgoingPacketLengths:histogram:overflows 0
scalar RedMarkerNetwork.routerCore1.eth[1].queue.fifo flowQueueingTime:histogram:count 0
scalar RedMarkerNetwork.routerCore1.eth[1].queue.fifo flowQueueingTime:histogram:sumweights 0
scalar RedMarkerNetwork.routerCore1.eth[1].queue.fifo flowQueueingTime:histogram:mean -nan
scalar RedMarkerNetwork.routerCore1.eth[1].queue.fifo flowQueueingTime:histogram:stddev nan
scalar RedMarkerNetwork.routerCore1.eth[1].queue.fifo flowQueueingTime:histogram:min nan
scalar RedMarkerNetwork.routerCore1.eth[1].queue.fifo flowQueueingTime:histogram:max nan
scalar RedMarkerNetwork.routerCore1.eth[1].queue.fifo flowQueueingTime:histogram:numbins 1
scalar RedMarkerNetwork.routerCore1.eth[1].queue.fifo flowQueueingTime:histogram:rangemin 0
scalar RedMarkerNetwork.routerCore1.eth[1].queue.fifo flowQueueingTime:histogram:rangemax 1
scalar RedMarkerNetwork.routerCore1.eth[1].queue.fifo flowQueueingTime:histogram:underflows 0
scalar RedMarkerNetwork.routerCore1.eth[1].queue.fifo flowQueueingTime:histogram:overflows 0
scalar RedMarkerNetwork.routerCore1.eth[1].queue.fifo incomingPacketLengths:histogram:count 6605
scalar RedMarkerNetwork.routerCore1.eth[1].queue.fifo incomingPacketLengths:histogram:sumweights 6605
scalar RedMarkerNetwork.routerCore1.eth[1].queue.fifo incomingPacketLengths:histogram:mean 6814.2049962149886
scalar RedMarkerNetwork.routerCore1.eth[1].queue.fifo incomingPacketLengths:histogram:stddev 3912.7963792557784
scalar RedMarkerNetwork.routerCore1.eth[1].queue.fifo incomingPacketLengths:histogram:min 464
scalar RedMarkerNetwork.routerCore1.eth[1].queue.fifo incomingPacketLengths:histogram:max 12144
scalar RedMarkerNetwork.routerCore1.eth[1].queue.fifo incomingPacketLengths:histogram:numbins 76
scalar RedMarkerNetwork.routerCore1.eth[1].queue.fifo incomingPacketLengths:histogram:rangemin 0
scalar RedMarkerNetwork.routerCore1.eth[1].queue.fifo incomingPacketLengths:histogram:rangemax 15200
scalar RedMarkerNetwork.routerCore1.eth[1].queue.fifo incomingPacketLengths:histogram:underflows 0
scalar RedMarkerNetwork.routerCore1.eth[1].queue.fifo incomingPacketLengths:histogram:overflows 0
scalar RedMarkerNetwork.routerCore1.eth[1].queue queueingTime:histogram:count 6605
scalar RedMarkerNetwork.routerCore1.eth[1].queue queueingTime:histogram:sumweights 6605
scalar RedMarkerNetwork.routerCore1.eth[1].queue queueingTime:histogram:mean 0
scalar RedMarkerNetwork.routerCore1.eth[1].queue queueingTime:histogram:stddev 0
scalar RedMarkerNetwork.routerCore1.eth[1].queue queueingTime:histogram:min 0
scalar RedMarkerNetwork.routerCore1.eth[1].queue queueingTime:histogram:max 0
scalar RedMarkerNetwork.routerCore1.eth[1].queue queueingTime:histogram:numbins 50
scalar RedMarkerNetwork.routerCore1.eth[1].queue queueingTime:histogram:rangemin -0.5
scalar RedMarkerNetwork.routerCore1.eth[1].queue queueingTime:histogram:rangemax 0.5
scalar RedMarkerNetwork.routerCore1.eth[1].queue queueingTime:histogram:underflows 0
scalar RedMarkerNetwork.routerCore1.eth[1].queue queueingTime:histogram:overflows 0
scalar RedMarkerNetwork.routerCore1.eth[1].queue outgoingPacketLengths:histogram:count 6605
scalar RedMarkerNetwork.routerCore1.eth[1].queue outgoingPacketLengths:histogram:sumweights 6605
scalar RedMarkerNetwork.routerCore1.eth[1].queue outgoingPacketLengths:histogram:mean 6814.2049962149886
scalar RedMarkerNetwork.routerCore1.eth[1].queue outgoingPacketLengths:histogram:stddev 3912.7963792557784
scalar RedMarkerNetwork.routerCore1.eth[1].queue outgoingPacketLengths:histogram:min 464
scalar RedMarkerNetwork.routerCore1.eth[1].queue outgoingPacketLengths:histogram:max 12144
scalar RedMarkerNetwork.routerCore1.eth[1].queue outgoingPacketLengths:histogram:numbins 76
scalar RedMarkerNetwork.routerCore1.eth[1].queue outgoingPacketLengths:histogram:rangemin 0
scalar RedMarkerNetwork.routerCore1.eth[1].queue outgoingPacketLengths:histogram:rangemax 15200
scalar RedMarkerNetwork.routerCore1.eth[1].queue outgoingPacketLengths:histogram:underflows 0
scalar RedMarkerNetwork.routerCore1.eth[1].queue outgoingPacketLengths:histogram:overflows 0
scalar RedMarkerNetwork.routerCore1.eth[1].queue flowQueueingTime:histogram:count 0
scalar RedMarkerNetwork.routerCore1.eth[1].queue flowQueueingTime:histogram:sumweights 0
scalar RedMarkerNetwork.routerCore1.eth[1].queue flowQueueingTime:histogram:mean -nan
scalar RedMarkerNetwork.routerCore1.eth[1].queue flowQueueingTime:histogram:stddev nan
scalar RedMarkerNetwork.routerCore1.eth[1].queue flowQueueingTime:histogram:min nan
scalar RedMarkerNetwork.routerCore1.eth[1].queue flowQueueingTime:histogram:max nan
scalar RedMarkerNetwork.routerCore1.eth[1].queue flowQueueingTime:histogram:numbins 1
scalar RedMarkerNetwork.routerCore1.eth[1].queue flowQueueingTime:histogram:rangemin 0
scalar RedMarkerNetwork.routerCore1.eth[1].queue flowQueueingTime:histogram:rangemax 1
scalar RedMarkerNetwork.routerCore1.eth[1].queue flowQueueingTime:histogram:underflows 0
scalar RedMarkerNetwork.routerCore1.eth[1].queue flowQueueingTime:histogram:overflows 0
scalar RedMarkerNetwork.routerCore1.eth[1].queue incomingPacketLengths:histogram:count 0
scalar RedMarkerNetwork.routerCore1.eth[1].queue incomingPacketLengths:histogram:sumweights 0
scalar RedMarkerNetwork.routerCore1.eth[1].queue incomingPacketLengths:histogram:mean -nan
scalar RedMarkerNetwork.routerCore1.eth[1].queue incomingPacketLengths:histogram:stddev nan
scalar RedMarkerNetwork.routerCore1.eth[1].queue incomingPacketLengths:histogram:min nan
scalar RedMarkerNetwork.routerCore1.eth[1].queue incomingPacketLengths:histogram:max nan
scalar RedMarkerNetwork.routerCore1.eth[1].queue incomingPacketLengths:histogram:numbins 1
scalar RedMarkerNetwork.routerCore1.eth[1].queue incomingPacketLengths:histogram:rangemin 0
scalar RedMarkerNetwork.routerCore1.eth[1].queue incomingPacketLengths:histogram:rangemax 1
scalar RedMarkerNetwork.routerCore1.eth[1].queue incomingPacketLengths:histogram:underflows 0
scalar RedMarkerNetwork.routerCore1.eth[1].queue incomingPacketLengths:histogram:overflows 0
scalar RedMarkerNetwork.routerCore1.eth[1].mac throughput:histogram:count 1017
scalar RedMarkerNetwork.routerCore1.eth[1].mac throughput:histogram:sumweights 1017
scalar RedMarkerNetwork.routerCore1.eth[1].mac throughput:histogram:mean 598601.17189840169
scalar RedMarkerNetwork.routerCore1.eth[1].mac throughput:histogram:stddev 2266499.9356132848
scalar RedMarkerNetwork.routerCore1.eth[1].mac throughput:histogram:min 0
scalar RedMarkerNetwork.routerCore1.eth[1].mac throughput:histogram:max 9506899.2085171957
scalar RedMarkerNetwork.routerCore1.eth[1].mac throughput:histogram:numbins 49
scalar RedMarkerNetwork.routerCore1.eth[1].mac throughput:histogram:rangemin -100000
scalar RedMarkerNetwork.routerCore1.eth[1].mac throughput:histogram:rangemax 9700000
scalar RedMarkerNetwork.routerCore1.eth[1].mac throughput:histogram:underflows 0
scalar RedMarkerNetwork.routerCore1.eth[1].mac throughput:histogram:overflows 0
scalar RedMarkerNetwork.routerCore1.eth[1].mac utilization:histogram:count 1017
scalar RedMarkerNetwork.routerCore1.eth[1].mac utilization:histogram:sumweights 1017
scalar RedMarkerNetwork.routerCore1.eth[1].mac utilization:histogram:mean 5.9856365090024788
scalar RedMarkerNetwork.routerCore1.eth[1].mac utilization:histogram:stddev 22.662485261565646
scalar RedMarkerNetwork.routerCore1.eth[1].mac utilization:histogram:min 0
scalar RedMarkerNetwork.routerCore1.eth[1].mac utilization:histogram:max 95.068992085171928
scalar RedMarkerNetwork.routerCore1.eth[1].mac utilization:histogram:numbins 49
scalar RedMarkerNetwork.routerCore1.eth[1].mac utilization:histogram:rangemin -1
scalar RedMarkerNetwork.routerCore1.eth[1].mac utilization:histogram:rangemax 97
scalar RedMarkerNetwork.routerCore1.eth[1].mac utilization:histogram:underflows 0
scalar RedMarkerNetwork.routerCore1.eth[1].mac utilization:histogram:overflows 0
scalar RedMarkerNetwork.routerCore2.eth[0].queue.red outgoingPacketLengths:histogram:count 6605
scalar RedMarkerNetwork.routerCore2.eth[0].queue.red outgoingPacketLengths:histogram:sumweights 6605
scalar RedMarkerNetwork.routerCore2.eth[0].queue.red outgoingPacketLengths:histogram:mean 6814.2049962149886
scalar RedMarkerNetwork.routerCore2.eth[0].queue.red outgoingPacketLengths:histogram:stddev 3912.7963792557784
scalar RedMarkerNetwork.routerCore2.eth[0].queue.red outgoingPacketLengths:histogram:min 464
scalar RedMarkerNetwork.routerCore2.eth[0].queue.red outgoingPacketLengths:histogram:max 12144
scalar RedMarkerNetwork.routerCore2.eth[0].queue.red outgoingPacketLengths:histogram:numbins 76
scalar RedMarkerNetwork.routerCore2.eth[0].queue.red outgoingPacketLengths:histogram:rangemin 0
scalar RedMarkerNetwork.routerCore2.eth[0].queue.red outgoingPacketLengths:histogram:rangemax 15200
scalar RedMarkerNetwork.routerCore2.eth[0].queue.red outgoingPacketLengths:histogram:underflows 0
scalar RedMarkerNetwork.routerCore2.eth[0].queue.red outgoingPacketLengths:histogram:overflows 0
scalar RedMarkerNetwork.routerCore2.eth[0].queue.red flowOutgoingPacketLengths:histogram:count 0
scalar RedMarkerNetwork.routerCore2.eth[0].queue.red flowOutgoingPacketLengths:histogram:sumweights 0
scalar RedMarkerNetwork.routerCore2.eth[0].queue.red flowOutgoingPacketLengths:histogram:mean -nan
scalar RedMarkerNetwork.routerCore2.eth[0].queue.red flowOutgoingPacketLengths:histogram:stddev nan
scalar RedMarkerNetwork.routerCore2.eth[0].queue.red flowOutgoingPacketLengths:histogram:min nan
scalar RedMarkerNetwork.routerCore2.eth[0].queue.red flowOutgoingPacketLengths:histogram:max nan
scalar RedMarkerNetwork.routerCore2.eth[0].queue.red flowOutgoingPacketLengths:histogram:numbins 1
scalar RedMarkerNetwork.routerCore2.eth[0].queue.red flowOutgoingPacketLengths:histogram:rangemin 0
scalar RedMarkerNetwork.routerCore2.eth[0].queue.red flowOutgoingPacketLengths:histogram:rangemax 1
scalar RedMarkerNetwork.routerCore2.eth[0].queue.red flowOutgoingPacketLengths:histogram:underflows 0
scalar RedMarkerNetwork.routerCore2.eth[0].queue.red flowOutgoingPacketLengths:histogram:overflows 0
scalar RedMarkerNetwork.routerCore2.eth[0].queue.red incomingPacketLengths:histogram:count 6605
scalar RedMarkerNetwork.routerCore2.eth[0].queue.red incomingPacketLengths:histogram:sumweights 6605
scalar RedMarkerNetwork.routerCore2.eth[0].queue.red incomingPacketLengths:histogram:mean 6814.2049962149886
scalar RedMarkerNetwork.routerCore2.eth[0].queue.red incomingPacketLengths:histogram:stddev 3912.7963792557784
scalar RedMarkerNetwork.routerCore2.eth[0].queue.red incomingPacketLengths:histogram:min 464
scalar RedMarkerNetwork.routerCore2.eth[0].queue.red incomingPacketLengths:histogram:max 12144
scalar RedMarkerNetwork.routerCore2.eth[0].queue.red incomingPacketLengths:histogram:numbins 76
scalar RedMarkerNetwork.routerCore2.eth[0].queue.red incomingPacketLengths:histogram:rangemin 0
scalar RedMarkerNetwork.routerCore2.eth[0].queue.red incomingPacketLengths:histogram:rangemax 15200
scalar RedMarkerNetwork.routerCore2.eth[0].queue.red incomingPacketLengths:histogram:underflows 0
scalar RedMarkerNetwork.routerCore2.eth[0].queue.red incomingPacketLengths:histogram:overflows 0
scalar RedMarkerNetwork.routerCore2.eth[0].queue.red flowIncomingPacketLengths:histogram:count 0
scalar RedMarkerNetwork.routerCore2.eth[0].queue.red flowIncomingPacketLengths:histogram:sumweights 0
scalar RedMarkerNetwork.routerCore2.eth[0].queue.red flowIncomingPacketLengths:histogram:mean -nan
scalar RedMarkerNetwork.routerCore2.eth[0].queue.red flowIncomingPacketLengths:histogram:stddev nan
scalar RedMarkerNetwork.routerCore2.eth[0].queue.red flowIncomingPacketLengths:histogram:min nan
scalar RedMarkerNetwork.routerCore2.eth[0].queue.red flowIncomingPacketLengths:histogram:max nan
scalar RedMarkerNetwork.routerCore2.eth[0].queue.red flowIncomingPacketLengths:histogram:numbins 1
scalar RedMarkerNetwork.routerCore2.eth[0].queue.red flowIncomingPacketLengths:histogram:rangemin 0
scalar RedMarkerNetwork.routerCore2.eth[0].queue.red flowIncomingPacketLengths:histogram:rangemax 1
scalar RedMarkerNetwork.routerCore2.eth[0].queue.red flowIncomingPacketLengths:histogram:underflows 0
scalar RedMarkerNetwork.routerCore2.eth[0].queue.red flowIncomingPacketLengths:histogram:overflows 0
scalar RedMarkerNetwork.routerCore2.eth[0].queue.red droppedPacketLengths:histogram:count 0
scalar RedMarkerNetwork.routerCore2.eth[0].queue.red droppedPacketLengths:histogram:sumweights 0
scalar RedMarkerNetwork.routerCore2.eth[0].queue.red droppedPacketLengths:histogram:mean -nan
scalar RedMarkerNetwork.routerCore2.eth[0].queue.red droppedPacketLengths:histogram:stddev nan
scalar RedMarkerNetwork.routerCore2.eth[0].queue.red droppedPacketLengths:histogram:min nan
scalar RedMarkerNetwork.routerCore2.eth[0].queue.red droppedPacketLengths:histogram:max nan
scalar RedMarkerNetwork.routerCore2.eth[0].queue.red droppedPacketLengths:histogram:numbins 1
scalar RedMarkerNetwork.routerCore2.eth[0].queue.red droppedPacketLengths:histogram:rangemin 0
scalar RedMarkerNetwork.routerCore2.eth[0].queue.red droppedPacketLengths:histogram:rangemax 1
scalar RedMarkerNetwork.routerCore2.eth[0].queue.red droppedPacketLengths:histogram:underflows 0
scalar RedMarkerNetwork.routerCore2.eth[0].queue.red droppedPacketLengths:histogram:overflows 0
scalar RedMarkerNetwork.routerCore2.eth[0].queue.red flowDroppedPacketLengths:histogram:count 0
scalar RedMarkerNetwork.routerCore2.eth[0].queue.red flowDroppedPacketLengths:histogram:sumweights 0
scalar RedMarkerNetwork.routerCore2.eth[0].queue.red flowDroppedPacketLengths:histogram:mean -nan
scalar RedMarkerNetwork.routerCore2.eth[0].queue.red flowDroppedPacketLengths:histogram:stddev nan
scalar RedMarkerNetwork.routerCore2.eth[0].queue.red flowDroppedPacketLengths:histogram:min nan
scalar RedMarkerNetwork.routerCore2.eth[0].queue.red flowDroppedPacketLengths:histogram:max nan
scalar RedMarkerNetwork.routerCore2.eth[0].queue.red flowDroppedPacketLengths:histogram:numbins 1
scalar RedMarkerNetwork.routerCore2.eth[0].queue.red flowDroppedPacketLengths:histogram:rangemin 0
scalar RedMarkerNetwork.routerCore2.eth[0].queue.red flowDroppedPacketLengths:histogram:rangemax 1
scalar RedMarkerNetwork.routerCore2.eth[0].queue.red flowDroppedPacketLengths:histogram:underflows 0
scalar RedMarkerNetwork.routerCore2.eth[0].queue.red flowDroppedPacketLengths:histogram:overflows 0
scalar RedMarkerNetwork.routerCore2.eth[0].queue.fifo queueingTime:histogram:count 6605
scalar RedMarkerNetwork.routerCore2.eth[0].queue.fifo queueingTime:histogram:sumweights 6605
scalar RedMarkerNetwork.routerCore2.eth[0].queue.fifo queueingTime:histogram:mean 6.824769114307347e-07
scalar RedMarkerNetwork.routerCore2.eth[0].queue.fifo queueingTime:histogram:stddev 5.0114611144026993e-06
scalar RedMarkerNetwork.routerCore2.eth[0].queue.fifo queueingTime:histogram:min 0
scalar RedMarkerNetwork.routerCore2.eth[0].queue.fifo queueingTime:histogram:max 5.5040000000000002e-05
scalar RedMarkerNetwork.routerCore2.eth[0].queue.fifo queueingTime:histogram:numbins 50
scalar RedMarkerNetwork.routerCore2.eth[0].queue.fifo queueingTime:histogram:rangemin -0.5
[...]
scalar RedMarkerNetwork.receiver1.tcp.conn-3 sndWnd:vector:min 65535
scalar RedMarkerNetwork.receiver1.tcp.conn-3 sndWnd:vector:max 4999936
scalar RedMarkerNetwork.receiver1.tcp.conn-3 sndWnd:vector:starttime 10.003071040000002
scalar RedMarkerNetwork.receiver1.tcp.conn-3 sndWnd:vector:endtime 14.961318960000003
scalar RedMarkerNetwork.receiver1.tcp.conn-3 rcvWnd:vector:count 6604
scalar RedMarkerNetwork.receiver1.tcp.conn-3 rcvWnd:vector:sum 33015065535
scalar RedMarkerNetwork.receiver1.tcp.conn-3 rcvWnd:vector:sumweights 6604
scalar RedMarkerNetwork.receiver1.tcp.conn-3 rcvWnd:vector:mean 4999252.8066323437
scalar RedMarkerNetwork.receiver1.tcp.conn-3 rcvWnd:vector:stddev 60720.66798817752
scalar RedMarkerNetwork.receiver1.tcp.conn-3 rcvWnd:vector:min 65535
scalar RedMarkerNetwork.receiver1.tcp.conn-3 rcvWnd:vector:max 5000000
scalar RedMarkerNetwork.receiver1.tcp.conn-3 rcvWnd:vector:starttime 10.003071040000002
scalar RedMarkerNetwork.receiver1.tcp.conn-3 rcvWnd:vector:endtime 14.955113520000003
scalar RedMarkerNetwork.receiver1.tcp.conn-3 rcvAdv:vector:count 6605
scalar RedMarkerNetwork.receiver1.tcp.conn-3 rcvAdv:vector:sum 66973152557
scalar RedMarkerNetwork.receiver1.tcp.conn-3 rcvAdv:vector:sumweights 6605
scalar RedMarkerNetwork.receiver1.tcp.conn-3 rcvAdv:vector:mean 10139765.71642695
scalar RedMarkerNetwork.receiver1.tcp.conn-3 rcvAdv:vector:stddev 1509347.9000315557
scalar RedMarkerNetwork.receiver1.tcp.conn-3 rcvAdv:vector:min 2565536
scalar RedMarkerNetwork.receiver1.tcp.conn-3 rcvAdv:vector:max 12742882
scalar RedMarkerNetwork.receiver1.tcp.conn-3 rcvAdv:vector:starttime 10.003071040000002
scalar RedMarkerNetwork.receiver1.tcp.conn-3 rcvAdv:vector:endtime 14.955113520000003
scalar RedMarkerNetwork.receiver1.tcp.conn-3 sndNxt:vector:count 0
scalar RedMarkerNetwork.receiver1.tcp.conn-3 sndNxt:vector:sum 0
scalar RedMarkerNetwork.receiver1.tcp.conn-3 sndNxt:vector:sumweights 0
scalar RedMarkerNetwork.receiver1.tcp.conn-3 sndNxt:vector:mean -nan
scalar RedMarkerNetwork.receiver1.tcp.conn-3 sndNxt:vector:stddev nan
scalar RedMarkerNetwork.receiver1.tcp.conn-3 sndNxt:vector:min inf
scalar RedMarkerNetwork.receiver1.tcp.conn-3 sndNxt:vector:max -inf
scalar RedMarkerNetwork.receiver1.tcp.conn-3 sndNxt:vector:starttime nan
scalar RedMarkerNetwork.receiver1.tcp.conn-3 sndNxt:vector:endtime nan
scalar RedMarkerNetwork.receiver1.tcp.conn-3 sndAck:vector:count 6604
scalar RedMarkerNetwork.receiver1.tcp.conn-3 sndAck:vector:sum 33955521486
scalar RedMarkerNetwork.receiver1.tcp.conn-3 sndAck:vector:sumweights 6604
scalar RedMarkerNetwork.receiver1.tcp.conn-3 sndAck:vector:mean 5141659.8252574196
scalar RedMarkerNetwork.receiver1.tcp.conn-3 sndAck:vector:stddev 1504044.9488576343
scalar RedMarkerNetwork.receiver1.tcp.conn-3 sndAck:vector:min 2500001
scalar RedMarkerNetwork.receiver1.tcp.conn-3 sndAck:vector:max 7742882
scalar RedMarkerNetwork.receiver1.tcp.conn-3 sndAck:vector:starttime 10.003071040000002
scalar RedMarkerNetwork.receiver1.tcp.conn-3 sndAck:vector:endtime 14.955113520000003
scalar RedMarkerNetwork.receiver1.tcp.conn-3 rcvSeq:vector:count 6604
scalar RedMarkerNetwork.receiver1.tcp.conn-3 rcvSeq:vector:sum 33950278605
scalar RedMarkerNetwork.receiver1.tcp.conn-3 rcvSeq:vector:sumweights 6604
scalar RedMarkerNetwork.receiver1.tcp.conn-3 rcvSeq:vector:mean 5140865.9304966684
scalar RedMarkerNetwork.receiver1.tcp.conn-3 rcvSeq:vector:stddev 1504055.4129175579
scalar RedMarkerNetwork.receiver1.tcp.conn-3 rcvSeq:vector:min 2500001
scalar RedMarkerNetwork.receiver1.tcp.conn-3 rcvSeq:vector:max 7742882
scalar RedMarkerNetwork.receiver1.tcp.conn-3 rcvSeq:vector:starttime 10.009211200000003
scalar RedMarkerNetwork.receiver1.tcp.conn-3 rcvSeq:vector:endtime 14.961318960000003
scalar RedMarkerNetwork.receiver1.tcp.conn-3 rcvAck:vector:count 6604
scalar RedMarkerNetwork.receiver1.tcp.conn-3 rcvAck:vector:sum 16515071873
scalar RedMarkerNetwork.receiver1.tcp.conn-3 rcvAck:vector:sumweights 6604
scalar RedMarkerNetwork.receiver1.tcp.conn-3 rcvAck:vector:mean 2500768.0001514233
scalar RedMarkerNetwork.receiver1.tcp.conn-3 rcvAck:vector:stddev 0
scalar RedMarkerNetwork.receiver1.tcp.conn-3 rcvAck:vector:min 2500768
scalar RedMarkerNetwork.receiver1.tcp.conn-3 rcvAck:vector:max 2500769
scalar RedMarkerNetwork.receiver1.tcp.conn-3 rcvAck:vector:starttime 10.009211200000003
scalar RedMarkerNetwork.receiver1.tcp.conn-3 rcvAck:vector:endtime 14.961318960000003
scalar RedMarkerNetwork.receiver1.tcp.conn-3 unacked:vector:count 3
scalar RedMarkerNetwork.receiver1.tcp.conn-3 unacked:vector:sum 1
scalar RedMarkerNetwork.receiver1.tcp.conn-3 unacked:vector:sumweights 3
scalar RedMarkerNetwork.receiver1.tcp.conn-3 unacked:vector:mean 0.33333333333333331
scalar RedMarkerNetwork.receiver1.tcp.conn-3 unacked:vector:stddev 0.57735026918962584
scalar RedMarkerNetwork.receiver1.tcp.conn-3 unacked:vector:min 0
scalar RedMarkerNetwork.receiver1.tcp.conn-3 unacked:vector:max 1
scalar RedMarkerNetwork.receiver1.tcp.conn-3 unacked:vector:starttime 10.009211200000003
scalar RedMarkerNetwork.receiver1.tcp.conn-3 unacked:vector:endtime 14.961318960000003
scalar RedMarkerNetwork.receiver1.tcp.conn-3 dupAcks:vector:count 6603
scalar RedMarkerNetwork.receiver1.tcp.conn-3 dupAcks:vector:sum 0
scalar RedMarkerNetwork.receiver1.tcp.conn-3 dupAcks:vector:sumweights 6603
scalar RedMarkerNetwork.receiver1.tcp.conn-3 dupAcks:vector:mean 0
scalar RedMarkerNetwork.receiver1.tcp.conn-3 dupAcks:vector:stddev 0
scalar RedMarkerNetwork.receiver1.tcp.conn-3 dupAcks:vector:min 0
scalar RedMarkerNetwork.receiver1.tcp.conn-3 dupAcks:vector:max 0
scalar RedMarkerNetwork.receiver1.tcp.conn-3 dupAcks:vector:starttime 10.010613760000002
scalar RedMarkerNetwork.receiver1.tcp.conn-3 dupAcks:vector:endtime 14.961318960000003
scalar RedMarkerNetwork.receiver1.tcp.conn-3 pipe:vector:count 0
scalar RedMarkerNetwork.receiver1.tcp.conn-3 pipe:vector:sum 0
scalar RedMarkerNetwork.receiver1.tcp.conn-3 pipe:vector:sumweights 0
scalar RedMarkerNetwork.receiver1.tcp.conn-3 pipe:vector:mean -nan
scalar RedMarkerNetwork.receiver1.tcp.conn-3 pipe:vector:stddev nan
scalar RedMarkerNetwork.receiver1.tcp.conn-3 pipe:vector:min inf
scalar RedMarkerNetwork.receiver1.tcp.conn-3 pipe:vector:max -inf
scalar RedMarkerNetwork.receiver1.tcp.conn-3 pipe:vector:starttime nan
scalar RedMarkerNetwork.receiver1.tcp.conn-3 pipe:vector:endtime nan
scalar RedMarkerNetwork.receiver1.tcp.conn-3 sndSacks:vector:count 0
scalar RedMarkerNetwork.receiver1.tcp.conn-3 sndSacks:vector:sum 0
scalar RedMarkerNetwork.receiver1.tcp.conn-3 sndSacks:vector:sumweights 0
scalar RedMarkerNetwork.receiver1.tcp.conn-3 sndSacks:vector:mean -nan
scalar RedMarkerNetwork.receiver1.tcp.conn-3 sndSacks:vector:stddev nan
scalar RedMarkerNetwork.receiver1.tcp.conn-3 sndSacks:vector:min inf
scalar RedMarkerNetwork.receiver1.tcp.conn-3 sndSacks:vector:max -inf
scalar RedMarkerNetwork.receiver1.tcp.conn-3 sndSacks:vector:starttime nan
scalar RedMarkerNetwork.receiver1.tcp.conn-3 sndSacks:vector:endtime nan
scalar RedMarkerNetwork.receiver1.tcp.conn-3 rcvSacks:vector:count 0
scalar RedMarkerNetwork.receiver1.tcp.conn-3 rcvSacks:vector:sum 0
scalar RedMarkerNetwork.receiver1.tcp.conn-3 rcvSacks:vector:sumweights 0
scalar RedMarkerNetwork.receiver1.tcp.conn-3 rcvSacks:vector:mean -nan
scalar RedMarkerNetwork.receiver1.tcp.conn-3 rcvSacks:vector:stddev nan
scalar RedMarkerNetwork.receiver1.tcp.conn-3 rcvSacks:vector:min inf
scalar RedMarkerNetwork.receiver1.tcp.conn-3 rcvSacks:vector:max -inf
scalar RedMarkerNetwork.receiver1.tcp.conn-3 rcvSacks:vector:starttime nan
scalar RedMarkerNetwork.receiver1.tcp.conn-3 rcvSacks:vector:endtime nan
scalar RedMarkerNetwork.receiver1.tcp.conn-3 rcvOooSeg:vector:count 0
scalar RedMarkerNetwork.receiver1.tcp.conn-3 rcvOooSeg:vector:sum 0
scalar RedMarkerNetwork.receiver1.tcp.conn-3 rcvOooSeg:vector:sumweights 0
scalar RedMarkerNetwork.receiver1.tcp.conn-3 rcvOooSeg:vector:mean -nan
scalar RedMarkerNetwork.receiver1.tcp.conn-3 rcvOooSeg:vector:stddev nan
scalar RedMarkerNetwork.receiver1.tcp.conn-3 rcvOooSeg:vector:min inf
scalar RedMarkerNetwork.receiver1.tcp.conn-3 rcvOooSeg:vector:max -inf
scalar RedMarkerNetwork.receiver1.tcp.conn-3 rcvOooSeg:vector:starttime nan
scalar RedMarkerNetwork.receiver1.tcp.conn-3 rcvOooSeg:vector:endtime nan
scalar RedMarkerNetwork.receiver1.tcp.conn-3 rcvNASeg:vector:count 0
scalar RedMarkerNetwork.receiver1.tcp.conn-3 rcvNASeg:vector:sum 0
scalar RedMarkerNetwork.receiver1.tcp.conn-3 rcvNASeg:vector:sumweights 0
scalar RedMarkerNetwork.receiver1.tcp.conn-3 rcvNASeg:vector:mean -nan
scalar RedMarkerNetwork.receiver1.tcp.conn-3 rcvNASeg:vector:stddev nan
scalar RedMarkerNetwork.receiver1.tcp.conn-3 rcvNASeg:vector:min inf
scalar RedMarkerNetwork.receiver1.tcp.conn-3 rcvNASeg:vector:max -inf
scalar RedMarkerNetwork.receiver1.tcp.conn-3 rcvNASeg:vector:starttime nan
scalar RedMarkerNetwork.receiver1.tcp.conn-3 rcvNASeg:vector:endtime nan
scalar RedMarkerNetwork.receiver1.tcp.conn-3 sackedBytes:vector:count 0
scalar RedMarkerNetwork.receiver1.tcp.conn-3 sackedBytes:vector:sum 0
scalar RedMarkerNetwork.receiver1.tcp.conn-3 sackedBytes:vector:sumweights 0
scalar RedMarkerNetwork.receiver1.tcp.conn-3 sackedBytes:vector:mean -nan
scalar RedMarkerNetwork.receiver1.tcp.conn-3 sackedBytes:vector:stddev nan
scalar RedMarkerNetwork.receiver1.tcp.conn-3 sackedBytes:vector:min inf
scalar RedMarkerNetwork.receiver1.tcp.conn-3 sackedBytes:vector:max -inf
scalar RedMarkerNetwork.receiver1.tcp.conn-3 sackedBytes:vector:starttime nan
scalar RedMarkerNetwork.receiver1.tcp.conn-3 sackedBytes:vector:endtime nan
scalar RedMarkerNetwork.receiver1.tcp.conn-3 tcpRcvQueueBytes:vector:count 13206
scalar RedMarkerNetwork.receiver1.tcp.conn-3 tcpRcvQueueBytes:vector:sum 0
scalar RedMarkerNetwork.receiver1.tcp.conn-3 tcpRcvQueueBytes:vector:sumweights 13206
scalar RedMarkerNetwork.receiver1.tcp.conn-3 tcpRcvQueueBytes:vector:mean 0
scalar RedMarkerNetwork.receiver1.tcp.conn-3 tcpRcvQueueBytes:vector:stddev 0
scalar RedMarkerNetwork.receiver1.tcp.conn-3 tcpRcvQueueBytes:vector:min 0
scalar RedMarkerNetwork.receiver1.tcp.conn-3 tcpRcvQueueBytes:vector:max 0
scalar RedMarkerNetwork.receiver1.tcp.conn-3 tcpRcvQueueBytes:vector:starttime 10.003071040000002
scalar RedMarkerNetwork.receiver1.tcp.conn-3 tcpRcvQueueBytes:vector:endtime 14.955113520000003
scalar RedMarkerNetwork.receiver1.tcp.conn-3 tcpRcvQueueDrops:vector:count 0
scalar RedMarkerNetwork.receiver1.tcp.conn-3 tcpRcvQueueDrops:vector:sum 0
scalar RedMarkerNetwork.receiver1.tcp.conn-3 tcpRcvQueueDrops:vector:sumweights 0
scalar RedMarkerNetwork.receiver1.tcp.conn-3 tcpRcvQueueDrops:vector:mean -nan
scalar RedMarkerNetwork.receiver1.tcp.conn-3 tcpRcvQueueDrops:vector:stddev nan
scalar RedMarkerNetwork.receiver1.tcp.conn-3 tcpRcvQueueDrops:vector:min inf
scalar RedMarkerNetwork.receiver1.tcp.conn-3 tcpRcvQueueDrops:vector:max -inf
scalar RedMarkerNetwork.receiver1.tcp.conn-3 tcpRcvQueueDrops:vector:starttime nan
scalar RedMarkerNetwork.receiver1.tcp.conn-3 tcpRcvQueueDrops:vector:endtime nan
scalar RedMarkerNetwork.receiver1.tcp.conn-3 tcpRcvPayloadBytes:vector:count 6604
scalar RedMarkerNetwork.receiver1.tcp.conn-3 tcpRcvPayloadBytes:vector:sum 5242880
scalar RedMarkerNetwork.receiver1.tcp.conn-3 tcpRcvPayloadBytes:vector:sumweights 6604
scalar RedMarkerNetwork.receiver1.tcp.conn-3 tcpRcvPayloadBytes:vector:mean 793.8946093276802
scalar RedMarkerNetwork.receiver1.tcp.conn-3 tcpRcvPayloadBytes:vector:stddev 489.04097204430849
scalar RedMarkerNetwork.receiver1.tcp.conn-3 tcpRcvPayloadBytes:vector:min 0
scalar RedMarkerNetwork.receiver1.tcp.conn-3 tcpRcvPayloadBytes:vector:max 1460
scalar RedMarkerNetwork.receiver1.tcp.conn-3 tcpRcvPayloadBytes:vector:starttime 10.009211200000003
scalar RedMarkerNetwork.receiver1.tcp.conn-3 tcpRcvPayloadBytes:vector:endtime 14.961318960000003
scalar RedMarkerNetwork.receiver1.tcp.conn-3 cwnd:vector:count 1
scalar RedMarkerNetwork.receiver1.tcp.conn-3 cwnd:vector:sum 2920
scalar RedMarkerNetwork.receiver1.tcp.conn-3 cwnd:vector:sumweights 1
scalar RedMarkerNetwork.receiver1.tcp.conn-3 cwnd:vector:mean 2920
scalar RedMarkerNetwork.receiver1.tcp.conn-3 cwnd:vector:stddev nan
scalar RedMarkerNetwork.receiver1.tcp.conn-3 cwnd:vector:min 2920
scalar RedMarkerNetwork.receiver1.tcp.conn-3 cwnd:vector:max 2920
scalar RedMarkerNetwork.receiver1.tcp.conn-3 cwnd:vector:starttime 14.961318960000003
scalar RedMarkerNetwork.receiver1.tcp.conn-3 cwnd:vector:endtime 14.961318960000003
scalar RedMarkerNetwork.receiver1.tcp.conn-3 ssthresh:vector:count 1
scalar RedMarkerNetwork.receiver1.tcp.conn-3 ssthresh:vector:sum 4294967295
scalar RedMarkerNetwork.receiver1.tcp.conn-3 ssthresh:vector:sumweights 1
scalar RedMarkerNetwork.receiver1.tcp.conn-3 ssthresh:vector:mean 4294967295
scalar RedMarkerNetwork.receiver1.tcp.conn-3 ssthresh:vector:stddev nan
scalar RedMarkerNetwork.receiver1.tcp.conn-3 ssthresh:vector:min 4294967295
scalar RedMarkerNetwork.receiver1.tcp.conn-3 ssthresh:vector:max 4294967295
scalar RedMarkerNetwork.receiver1.tcp.conn-3 ssthresh:vector:starttime 14.961318960000003
scalar RedMarkerNetwork.receiver1.tcp.conn-3 ssthresh:vector:endtime 14.961318960000003
scalar RedMarkerNetwork.receiver1.tcp.conn-3 rtt:vector:count 0
scalar RedMarkerNetwork.receiver1.tcp.conn-3 rtt:vector:sum 0
scalar RedMarkerNetwork.receiver1.tcp.conn-3 rtt:vector:sumweights 0
scalar RedMarkerNetwork.receiver1.tcp.conn-3 rtt:vector:mean -nan
scalar RedMarkerNetwork.receiver1.tcp.conn-3 rtt:vector:stddev nan
scalar RedMarkerNetwork.receiver1.tcp.conn-3 rtt:vector:min inf
scalar RedMarkerNetwork.receiver1.tcp.conn-3 rtt:vector:max -inf
scalar RedMarkerNetwork.receiver1.tcp.conn-3 rtt:vector:starttime nan
scalar RedMarkerNetwork.receiver1.tcp.conn-3 rtt:vector:endtime nan
scalar RedMarkerNetwork.receiver1.tcp.conn-3 srtt:vector:count 0
scalar RedMarkerNetwork.receiver1.tcp.conn-3 srtt:vector:sum 0
scalar RedMarkerNetwork.receiver1.tcp.conn-3 srtt:vector:sumweights 0
scalar RedMarkerNetwork.receiver1.tcp.conn-3 srtt:vector:mean -nan
scalar RedMarkerNetwork.receiver1.tcp.conn-3 srtt:vector:stddev nan
scalar RedMarkerNetwork.receiver1.tcp.conn-3 srtt:vector:min inf
scalar RedMarkerNetwork.receiver1.tcp.conn-3 srtt:vector:max -inf
scalar RedMarkerNetwork.receiver1.tcp.conn-3 srtt:vector:starttime nan
scalar RedMarkerNetwork.receiver1.tcp.conn-3 srtt:vector:endtime nan
scalar RedMarkerNetwork.receiver1.tcp.conn-3 rttvar:vector:count 0
scalar RedMarkerNetwork.receiver1.tcp.conn-3 rttvar:vector:sum 0
scalar RedMarkerNetwork.receiver1.tcp.conn-3 rttvar:vector:sumweights 0
scalar RedMarkerNetwork.receiver1.tcp.conn-3 rttvar:vector:mean -nan
scalar RedMarkerNetwork.receiver1.tcp.conn-3 rttvar:vector:stddev nan
scalar RedMarkerNetwork.receiver1.tcp.conn-3 rttvar:vector:min inf
scalar RedMarkerNetwork.receiver1.tcp.conn-3 rttvar:vector:max -inf
scalar RedMarkerNetwork.receiver1.tcp.conn-3 rttvar:vector:starttime nan
scalar RedMarkerNetwork.receiver1.tcp.conn-3 rttvar:vector:endtime nan
scalar RedMarkerNetwork.receiver1.tcp.conn-3 rto:vector:count 0
scalar RedMarkerNetwork.receiver1.tcp.conn-3 rto:vector:sum 0
scalar RedMarkerNetwork.receiver1.tcp.conn-3 rto:vector:sumweights 0
scalar RedMarkerNetwork.receiver1.tcp.conn-3 rto:vector:mean -nan
scalar RedMarkerNetwork.receiver1.tcp.conn-3 rto:vector:stddev nan
scalar RedMarkerNetwork.receiver1.tcp.conn-3 rto:vector:min inf
scalar RedMarkerNetwork.receiver1.tcp.conn-3 rto:vector:max -inf
scalar RedMarkerNetwork.receiver1.tcp.conn-3 rto:vector:starttime nan
scalar RedMarkerNetwork.receiver1.tcp.conn-3 rto:vector:endtime nan
scalar RedMarkerNetwork.receiver1.tcp.conn-3 numRtos:vector:count 0
scalar RedMarkerNetwork.receiver1.tcp.conn-3 numRtos:vector:sum 0
scalar RedMarkerNetwork.receiver1.tcp.conn-3 numRtos:vector:sumweights 0
scalar RedMarkerNetwork.receiver1.tcp.conn-3 numRtos:vector:mean -nan
scalar RedMarkerNetwork.receiver1.tcp.conn-3 numRtos:vector:stddev nan
scalar RedMarkerNetwork.receiver1.tcp.conn-3 numRtos:vector:min inf
scalar RedMarkerNetwork.receiver1.tcp.conn-3 numRtos:vector:max -inf
scalar RedMarkerNetwork.receiver1.tcp.conn-3 numRtos:vector:starttime nan
scalar RedMarkerNetwork.receiver1.tcp.conn-3 numRtos:vector:endtime nan
scalar RedMarkerNetwork.receiver1.tcp.conn-3 load:vector:count 0
scalar RedMarkerNetwork.receiver1.tcp.conn-3 load:vector:sum 0
scalar RedMarkerNetwork.receiver1.tcp.conn-3 load:vector:sumweights 0
scalar RedMarkerNetwork.receiver1.tcp.conn-3 load:vector:mean -nan
scalar RedMarkerNetwork.receiver1.tcp.conn-3 load:vector:stddev nan
scalar RedMarkerNetwork.receiver1.tcp.conn-3 load:vector:min inf
scalar RedMarkerNetwork.receiver1.tcp.conn-3 load:vector:max -inf
scalar RedMarkerNetwork.receiver1.tcp.conn-3 load:vector:starttime nan
scalar RedMarkerNetwork.receiver1.tcp.conn-3 load:vector:endtime nan
scalar RedMarkerNetwork.receiver1.tcp.conn-3 calcLoad:vector:count 0
scalar RedMarkerNetwork.receiver1.tcp.conn-3 calcLoad:vector:sum 0
scalar RedMarkerNetwork.receiver1.tcp.conn-3 calcLoad:vector:sumweights 0
scalar RedMarkerNetwork.receiver1.tcp.conn-3 calcLoad:vector:mean -nan
scalar RedMarkerNetwork.receiver1.tcp.conn-3 calcLoad:vector:stddev nan
scalar RedMarkerNetwork.receiver1.tcp.conn-3 calcLoad:vector:min inf
scalar RedMarkerNetwork.receiver1.tcp.conn-3 calcLoad:vector:max -inf
scalar RedMarkerNetwork.receiver1.tcp.conn-3 calcLoad:vector:starttime nan
scalar RedMarkerNetwork.receiver1.tcp.conn-3 calcLoad:vector:endtime nan
scalar RedMarkerNetwork.receiver1.tcp.conn-3 markingProb:vector:count 0
scalar RedMarkerNetwork.receiver1.tcp.conn-3 markingProb:vector:sum 0
scalar RedMarkerNetwork.receiver1.tcp.conn-3 markingProb:vector:sumweights 0
scalar RedMarkerNetwork.receiver1.tcp.conn-3 markingProb:vector:mean -nan
scalar RedMarkerNetwork.receiver1.tcp.conn-3 markingProb:vector:stddev nan
scalar RedMarkerNetwork.receiver1.tcp.conn-3 markingProb:vector:min inf
scalar RedMarkerNetwork.receiver1.tcp.conn-3 markingProb:vector:max -inf
scalar RedMarkerNetwork.receiver1.tcp.conn-3 markingProb:vector:starttime nan
scalar RedMarkerNetwork.receiver1.tcp.conn-3 markingProb:vector:endtime nan
scalar RedMarkerNetwork.receiver1.app[0].thread_3 packetReceived:vector(packetBytes):count 6602
scalar RedMarkerNetwork.receiver1.app[0].thread_3 packetReceived:vector(packetBytes):sum 5242880
scalar RedMarkerNetwork.receiver1.app[0].thread_3 packetReceived:vector(packetBytes):sumweights 6602
scalar RedMarkerNetwork.receiver1.app[0].thread_3 packetReceived:vector(packetBytes):mean 794.1351105725538
scalar RedMarkerNetwork.receiver1.app[0].thread_3 packetReceived:vector(packetBytes):stddev 488.91974289744655
scalar RedMarkerNetwork.receiver1.app[0].thread_3 packetReceived:vector(packetBytes):min 5
scalar RedMarkerNetwork.receiver1.app[0].thread_3 packetReceived:vector(packetBytes):max 1460
scalar RedMarkerNetwork.receiver1.app[0].thread_3 packetReceived:vector(packetBytes):starttime 10.010613760000002
scalar RedMarkerNetwork.receiver1.app[0].thread_3 packetReceived:vector(packetBytes):endtime 14.955113520000003
scalar RedMarkerNetwork.receiver1.app[0].thread_3 endToEndDelay:vector:count 6602
scalar RedMarkerNetwork.receiver1.app[0].thread_3 endToEndDelay:vector:sum 16567.663579920008
scalar RedMarkerNetwork.receiver1.app[0].thread_3 endToEndDelay:vector:sumweights 6602
scalar RedMarkerNetwork.receiver1.app[0].thread_3 endToEndDelay:vector:mean 2.5094916055619523
scalar RedMarkerNetwork.receiver1.app[0].thread_3 endToEndDelay:vector:stddev 1.4142055158790419
scalar RedMarkerNetwork.receiver1.app[0].thread_3 endToEndDelay:vector:min 0.0044716799999999996
scalar RedMarkerNetwork.receiver1.app[0].thread_3 endToEndDelay:vector:max 4.9489714400000002
scalar RedMarkerNetwork.receiver1.app[0].thread_3 endToEndDelay:vector:starttime 10.010613760000002
scalar RedMarkerNetwork.receiver1.app[0].thread_3 endToEndDelay:vector:endtime 14.955113520000003

