version 3
run PingRtt-0-20250108-11:37:03-14174
attr configname PingRtt
attr datetime 20250108-11:37:03
attr datetimef 20250108-113703
attr experiment PingRtt
attr inifile omnetpp.ini
attr iterationvars ""
attr iterationvarsd ""
attr iterationvarsf ""
attr measurement ""
attr network StatisticVisualizationPingRttShowcase
attr processid 14174
attr repetition 0
attr replication #0
attr resultdir results
attr runnumber 0
attr seedset 0
config **.param-recording false
config image-path /home/levy/workspace/inet/images
config output-scalar-file results/omnetpp.ini-PingRtt-#0.sca
config output-vector-file results/omnetpp.ini-PingRtt-#0.vec
config sim-time-limit 500s
config sim-time-limit 500s
config network StatisticVisualizationPingRttShowcase
config description "Displaying round trip time of ping packets"
config *.source.numApps 1
config *.source.app[0].typename PingApp
config *.source.app[0].destAddr "\"destination\""
config *.visualizer.statisticVisualizer.displayStatistics true
config *.visualizer.statisticVisualizer.sourceFilter "\"**.app[*]\""
config *.visualizer.statisticVisualizer.signalName "\"rtt\""
config *.visualizer.statisticVisualizer.unit "\"ms\""
config **.wlan*.mac.dcf.channelAccess.pendingQueue.packetCapacity 14

scalar StatisticVisualizationPingRttShowcase.radioMedium.propagation "Arrival computation count" 2015
scalar StatisticVisualizationPingRttShowcase.radioMedium "transmission count" 2015
scalar StatisticVisualizationPingRttShowcase.radioMedium "signal send count" 2015
scalar StatisticVisualizationPingRttShowcase.radioMedium "reception computation count" 2015
scalar StatisticVisualizationPingRttShowcase.radioMedium "interference computation count" 8064
scalar StatisticVisualizationPingRttShowcase.radioMedium "reception decision computation count" 2015
scalar StatisticVisualizationPingRttShowcase.radioMedium "listening decision computation count" 4034
scalar StatisticVisualizationPingRttShowcase.radioMedium "reception cache hit" 85.714285714286
scalar StatisticVisualizationPingRttShowcase.radioMedium "interference cache hit" 66.666666666667
scalar StatisticVisualizationPingRttShowcase.radioMedium "noise cache hit" 0
scalar StatisticVisualizationPingRttShowcase.radioMedium "snir cache hit" 50
scalar StatisticVisualizationPingRttShowcase.radioMedium "reception decision cache hit" 50
scalar StatisticVisualizationPingRttShowcase.radioMedium "reception result cache hit" 0
scalar StatisticVisualizationPingRttShowcase.source.lo[0].lo rcvdPkFromHl:count 0
scalar StatisticVisualizationPingRttShowcase.source.lo[0].lo rcvdPkFromHl:sum(packetBytes) 0
scalar StatisticVisualizationPingRttShowcase.source.lo[0].lo passedUpPk:count 0
scalar StatisticVisualizationPingRttShowcase.source.lo[0].lo passedUpPk:sum(packetBytes) 0
scalar StatisticVisualizationPingRttShowcase.source.lo[0] packetDropInterfaceDown:count 0
scalar StatisticVisualizationPingRttShowcase.source.lo[0] packetDropInterfaceDown:sum(packetBytes) 0
scalar StatisticVisualizationPingRttShowcase.source.lo[0] packetDropNoCarrier:count 0
scalar StatisticVisualizationPingRttShowcase.source.lo[0] packetDropNoCarrier:sum(packetBytes) 0
scalar StatisticVisualizationPingRttShowcase.source.wlan[0].mac.dcf.channelAccess.pendingQueue queueLength:last 0
scalar StatisticVisualizationPingRttShowcase.source.wlan[0].mac.dcf.channelAccess.pendingQueue queueLength:max 1
scalar StatisticVisualizationPingRttShowcase.source.wlan[0].mac.dcf.channelAccess.pendingQueue queueLength:timeavg 3.204e-06
scalar StatisticVisualizationPingRttShowcase.source.wlan[0].mac.dcf.channelAccess.pendingQueue queueBitLength:last 0
scalar StatisticVisualizationPingRttShowcase.source.wlan[0].mac.dcf.channelAccess.pendingQueue queueBitLength:max 960
scalar StatisticVisualizationPingRttShowcase.source.wlan[0].mac.dcf.channelAccess.pendingQueue queueBitLength:timeavg 0.00228736
scalar StatisticVisualizationPingRttShowcase.source.wlan[0].mac.dcf.channelAccess.pendingQueue outgoingPackets:count 505
scalar StatisticVisualizationPingRttShowcase.source.wlan[0].mac.dcf.channelAccess.pendingQueue outgoingPacketLengths:sum 482560
scalar StatisticVisualizationPingRttShowcase.source.wlan[0].mac.dcf.channelAccess.pendingQueue incomingPackets:count 505
scalar StatisticVisualizationPingRttShowcase.source.wlan[0].mac.dcf.channelAccess.pendingQueue incomingPacketLengths:sum 482560
scalar StatisticVisualizationPingRttShowcase.source.wlan[0].mac.dcf.channelAccess.pendingQueue droppedPacketsQueueOverflow:count 0
scalar StatisticVisualizationPingRttShowcase.source.wlan[0].mac.dcf.channelAccess.pendingQueue droppedPacketLengthsQueueOverflow:sum 0
scalar StatisticVisualizationPingRttShowcase.source.wlan[0].mac.dcf.channelAccess.inProgressFrames queueLength:max 1
scalar StatisticVisualizationPingRttShowcase.source.wlan[0].mac.dcf.channelAccess.inProgressFrames queueLength:timeavg 0.000115700788824
scalar StatisticVisualizationPingRttShowcase.source.wlan[0].mac.dcf.channelAccess.contention channelAccessGranted:count 505
scalar StatisticVisualizationPingRttShowcase.source.wlan[0].mac.dcf.channelAccess.contention stateChanged:count 8074
scalar StatisticVisualizationPingRttShowcase.source.wlan[0].mac.dcf.channelAccess channelOwnershipChanged:count 1010
scalar StatisticVisualizationPingRttShowcase.source.wlan[0].mac.dcf.originatorMacDataService packetAggregated:count 0
scalar StatisticVisualizationPingRttShowcase.source.wlan[0].mac.dcf.originatorMacDataService packetFragmented:count 0
scalar StatisticVisualizationPingRttShowcase.source.wlan[0].mac.dcf.recipientMacDataService packetDeaggregated:count 0
scalar StatisticVisualizationPingRttShowcase.source.wlan[0].mac.dcf.recipientMacDataService packetDefragmented:count 505
scalar StatisticVisualizationPingRttShowcase.source.wlan[0].mac.dcf.recipientMacDataService packetDropDuplicateDetected:count 0
scalar StatisticVisualizationPingRttShowcase.source.wlan[0].mac.dcf.recipientMacDataService packetDropDuplicateDetected:sum(packetBytes) 0
scalar StatisticVisualizationPingRttShowcase.source.wlan[0].mac.dcf.recoveryProcedure retryLimitReached:count 0
scalar StatisticVisualizationPingRttShowcase.source.wlan[0].mac.dcf frameSequenceFinished:count 505
scalar StatisticVisualizationPingRttShowcase.source.wlan[0].mac.dcf packetReceivedFromPeer:count 1007
scalar StatisticVisualizationPingRttShowcase.source.wlan[0].mac.dcf packetReceivedFromPeer:sum(packetBytes) 67348
scalar StatisticVisualizationPingRttShowcase.source.wlan[0].mac.dcf packetReceivedFromPeerUnicast:count 1005
scalar StatisticVisualizationPingRttShowcase.source.wlan[0].mac.dcf packetReceivedFromPeerUnicast:sum(packetBytes) 67220
scalar StatisticVisualizationPingRttShowcase.source.wlan[0].mac.dcf packetReceivedFromPeerMulticast:count 2
scalar StatisticVisualizationPingRttShowcase.source.wlan[0].mac.dcf packetReceivedFromPeerMulticast:sum(packetBytes) 128
scalar StatisticVisualizationPingRttShowcase.source.wlan[0].mac.dcf packetReceivedFromPeerBroadcast:count 2
scalar StatisticVisualizationPingRttShowcase.source.wlan[0].mac.dcf packetReceivedFromPeerBroadcast:sum(packetBytes) 128
scalar StatisticVisualizationPingRttShowcase.source.wlan[0].mac.dcf packetReceivedFromPeerWithRetry:count 0
scalar StatisticVisualizationPingRttShowcase.source.wlan[0].mac.dcf packetReceivedFromPeerWithRetry:sum(packetBytes) 0
scalar StatisticVisualizationPingRttShowcase.source.wlan[0].mac.dcf packetReceivedFromPeerWithoutRetry:count 1007
scalar StatisticVisualizationPingRttShowcase.source.wlan[0].mac.dcf packetReceivedFromPeerWithoutRetry:sum(packetBytes) 67348
scalar StatisticVisualizationPingRttShowcase.source.wlan[0].mac.dcf packetSentToPeer:count 1008
scalar StatisticVisualizationPingRttShowcase.source.wlan[0].mac.dcf packetSentToPeer:sum(packetBytes) 67362
scalar StatisticVisualizationPingRttShowcase.source.wlan[0].mac.dcf packetSentToPeerUnicast:count 1005
scalar StatisticVisualizationPingRttShowcase.source.wlan[0].mac.dcf packetSentToPeerUnicast:sum(packetBytes) 67170
scalar StatisticVisualizationPingRttShowcase.source.wlan[0].mac.dcf packetSentToPeerMulticast:count 3
scalar StatisticVisualizationPingRttShowcase.source.wlan[0].mac.dcf packetSentToPeerMulticast:sum(packetBytes) 192
scalar StatisticVisualizationPingRttShowcase.source.wlan[0].mac.dcf packetSentToPeerBroadcast:count 3
scalar StatisticVisualizationPingRttShowcase.source.wlan[0].mac.dcf packetSentToPeerBroadcast:sum(packetBytes) 192
scalar StatisticVisualizationPingRttShowcase.source.wlan[0].mac.dcf packetSentToPeerWithRetry:count 0
scalar StatisticVisualizationPingRttShowcase.source.wlan[0].mac.dcf packetSentToPeerWithRetry:sum(packetBytes) 0
scalar StatisticVisualizationPingRttShowcase.source.wlan[0].mac.dcf packetSentToPeerWithoutRetry:count 1008
scalar StatisticVisualizationPingRttShowcase.source.wlan[0].mac.dcf packetSentToPeerWithoutRetry:sum(packetBytes) 67362
scalar StatisticVisualizationPingRttShowcase.source.wlan[0].mac.dcf packetDrop:count 0
scalar StatisticVisualizationPingRttShowcase.source.wlan[0].mac.dcf packetDrop:sum(packetBytes) 0
scalar StatisticVisualizationPingRttShowcase.source.wlan[0].mac.dcf packetDropNotAddressedToUs:count 0
scalar StatisticVisualizationPingRttShowcase.source.wlan[0].mac.dcf packetDropNotAddressedToUs:sum(packetBytes) 0
scalar StatisticVisualizationPingRttShowcase.source.wlan[0].mac.dcf packetDropQueueOverflow:count 0
scalar StatisticVisualizationPingRttShowcase.source.wlan[0].mac.dcf packetDropQueueOverflow:sum(packetBytes) 0
scalar StatisticVisualizationPingRttShowcase.source.wlan[0].mac.dcf packetDropRetryLimitReached:count 0
scalar StatisticVisualizationPingRttShowcase.source.wlan[0].mac.dcf packetDropRetryLimitReached:sum(packetBytes) 0
scalar StatisticVisualizationPingRttShowcase.source.wlan[0].mac.dcf linkBroken:count 0
scalar StatisticVisualizationPingRttShowcase.source.wlan[0].mac packetReceivedFromLower:count 1007
scalar StatisticVisualizationPingRttShowcase.source.wlan[0].mac packetReceivedFromLower:sum(packetBytes) 67348
scalar StatisticVisualizationPingRttShowcase.source.wlan[0].mac packetSentToLower:count 1008
scalar StatisticVisualizationPingRttShowcase.source.wlan[0].mac packetSentToLower:sum(packetBytes) 67362
scalar StatisticVisualizationPingRttShowcase.source.wlan[0].mac packetReceivedFromUpper:count 505
scalar StatisticVisualizationPingRttShowcase.source.wlan[0].mac packetReceivedFromUpper:sum(packetBytes) 46180
scalar StatisticVisualizationPingRttShowcase.source.wlan[0].mac packetSentToUpper:count 505
scalar StatisticVisualizationPingRttShowcase.source.wlan[0].mac packetSentToUpper:sum(packetBytes) 46180
scalar StatisticVisualizationPingRttShowcase.source.wlan[0].mac packetDrop:count 0
scalar StatisticVisualizationPingRttShowcase.source.wlan[0].mac packetDrop:sum(packetBytes) 0
scalar StatisticVisualizationPingRttShowcase.source.wlan[0].mac packetDropIncorrectlyReceived:count 0
scalar StatisticVisualizationPingRttShowcase.source.wlan[0].mac packetDropIncorrectlyReceived:sum(packetBytes) 0
scalar StatisticVisualizationPingRttShowcase.source.wlan[0].mac packetDropNotAddressedToUs:count 0
scalar StatisticVisualizationPingRttShowcase.source.wlan[0].mac packetDropNotAddressedToUs:sum(packetBytes) 0
scalar StatisticVisualizationPingRttShowcase.source.wlan[0].mac packetDropQueueOverflow:count 0
scalar StatisticVisualizationPingRttShowcase.source.wlan[0].mac packetDropQueueOverflow:sum(packetBytes) 0
scalar StatisticVisualizationPingRttShowcase.source.wlan[0].mac packetDropRetryLimitReached:count 0
scalar StatisticVisualizationPingRttShowcase.source.wlan[0].mac packetDropRetryLimitReached:sum(packetBytes) 0
scalar StatisticVisualizationPingRttShowcase.source.wlan[0].mac packetDropDuplicateDetected:count 0
scalar StatisticVisualizationPingRttShowcase.source.wlan[0].mac packetDropDuplicateDetected:sum(packetBytes) 0
scalar StatisticVisualizationPingRttShowcase.source.wlan[0].mac packetDropOther:count 0
scalar StatisticVisualizationPingRttShowcase.source.wlan[0].mac packetDropOther:sum(packetBytes) 0
scalar StatisticVisualizationPingRttShowcase.source.wlan[0].mac linkBroken:count 0
scalar StatisticVisualizationPingRttShowcase.source.wlan[0].radio radioMode:count 2019
scalar StatisticVisualizationPingRttShowcase.source.wlan[0].radio receptionState:count 4031
scalar StatisticVisualizationPingRttShowcase.source.wlan[0].radio transmissionState:count 4032
scalar StatisticVisualizationPingRttShowcase.source.wlan[0] packetDropInterfaceDown:count 0
scalar StatisticVisualizationPingRttShowcase.source.wlan[0] packetDropInterfaceDown:sum(packetBytes) 0
scalar StatisticVisualizationPingRttShowcase.source.wlan[0] packetDropNoCarrier:count 0
scalar StatisticVisualizationPingRttShowcase.source.wlan[0] packetDropNoCarrier:sum(packetBytes) 0
scalar StatisticVisualizationPingRttShowcase.source.ipv4.ip packetDropAddressResolutionFailed:count 0
scalar StatisticVisualizationPingRttShowcase.source.ipv4.ip packetDropAddressResolutionFailed:sum(packetBytes) 0
scalar StatisticVisualizationPingRttShowcase.source.ipv4.ip packetDropHopLimitReached:count 0
scalar StatisticVisualizationPingRttShowcase.source.ipv4.ip packetDropHopLimitReached:sum(packetBytes) 0
scalar StatisticVisualizationPingRttShowcase.source.ipv4.ip packetDropForwardingDisabled:count 0
scalar StatisticVisualizationPingRttShowcase.source.ipv4.ip packetDropForwardingDisabled:sum(packetBytes) 0
scalar StatisticVisualizationPingRttShowcase.source.ipv4.ip packetDropLifetimeExpired:count 0
scalar StatisticVisualizationPingRttShowcase.source.ipv4.ip packetDropLifetimeExpired:sum(packetBytes) 0
scalar StatisticVisualizationPingRttShowcase.source.ipv4.ip packetDropNoInterfaceFound:count 0
scalar StatisticVisualizationPingRttShowcase.source.ipv4.ip packetDropNoInterfaceFound:sum(packetBytes) 0
scalar StatisticVisualizationPingRttShowcase.source.ipv4.ip packetDropNoRouteFound:count 0
scalar StatisticVisualizationPingRttShowcase.source.ipv4.ip packetDropNoRouteFound:sum(packetBytes) 0
scalar StatisticVisualizationPingRttShowcase.source.ipv4.ip packetDropUndefined:count 0
scalar StatisticVisualizationPingRttShowcase.source.ipv4.ip packetDropUndefined:sum(packetBytes) 0
scalar StatisticVisualizationPingRttShowcase.source.ipv4.arp arpResolutionFailed:count 0
scalar StatisticVisualizationPingRttShowcase.source.ipv4.arp arpResolutionCompleted:count 5
scalar StatisticVisualizationPingRttShowcase.source.ipv4.arp arpResolutionInitiated:count 3
scalar StatisticVisualizationPingRttShowcase.source.ipv4.arp arpReplySent:count 2
scalar StatisticVisualizationPingRttShowcase.source.ipv4.arp arpReplySent:sum(packetBytes) 56
scalar StatisticVisualizationPingRttShowcase.source.ipv4.arp arpRequestSent:count 3
scalar StatisticVisualizationPingRttShowcase.source.ipv4.arp arpRequestSent:sum(packetBytes) 84
scalar StatisticVisualizationPingRttShowcase.source.udp packetReceived:count 0
scalar StatisticVisualizationPingRttShowcase.source.udp packetReceived:sum(packetBytes) 0
scalar StatisticVisualizationPingRttShowcase.source.udp packetSent:count 0
scalar StatisticVisualizationPingRttShowcase.source.udp packetSent:sum(packetBytes) 0
scalar StatisticVisualizationPingRttShowcase.source.udp passedUpPk:count 0
scalar StatisticVisualizationPingRttShowcase.source.udp droppedPkWrongPort:count 0
scalar StatisticVisualizationPingRttShowcase.source.udp droppedPkBadChecksum:count 0
scalar StatisticVisualizationPingRttShowcase.source.app[0] "Pings sent" 500
scalar StatisticVisualizationPingRttShowcase.source.app[0] "ping loss rate (%)" 0
scalar StatisticVisualizationPingRttShowcase.source.app[0] "ping out-of-order rate (%)" 0
scalar StatisticVisualizationPingRttShowcase.source.app[0] pingRxSeq:count 500
scalar StatisticVisualizationPingRttShowcase.source.app[0] pingTxSeq:count 500
scalar StatisticVisualizationPingRttShowcase.source.app[0] numOutOfOrderArrivals:last nan
scalar StatisticVisualizationPingRttShowcase.source.app[0] numLost:last nan
scalar StatisticVisualizationPingRttShowcase.destination.lo[0].lo rcvdPkFromHl:count 0
scalar StatisticVisualizationPingRttShowcase.destination.lo[0].lo rcvdPkFromHl:sum(packetBytes) 0
scalar StatisticVisualizationPingRttShowcase.destination.lo[0].lo passedUpPk:count 0
scalar StatisticVisualizationPingRttShowcase.destination.lo[0].lo passedUpPk:sum(packetBytes) 0
scalar StatisticVisualizationPingRttShowcase.destination.lo[0] packetDropInterfaceDown:count 0
scalar StatisticVisualizationPingRttShowcase.destination.lo[0] packetDropInterfaceDown:sum(packetBytes) 0
scalar StatisticVisualizationPingRttShowcase.destination.lo[0] packetDropNoCarrier:count 0
scalar StatisticVisualizationPingRttShowcase.destination.lo[0] packetDropNoCarrier:sum(packetBytes) 0
scalar StatisticVisualizationPingRttShowcase.destination.wlan[0].mac.dcf.channelAccess.pendingQueue queueLength:last 0
scalar StatisticVisualizationPingRttShowcase.destination.wlan[0].mac.dcf.channelAccess.pendingQueue queueLength:max 1
scalar StatisticVisualizationPingRttShowcase.destination.wlan[0].mac.dcf.channelAccess.pendingQueue queueLength:timeavg 0.000390756
scalar StatisticVisualizationPingRttShowcase.destination.wlan[0].mac.dcf.channelAccess.pendingQueue queueBitLength:last 0
scalar StatisticVisualizationPingRttShowcase.destination.wlan[0].mac.dcf.channelAccess.pendingQueue queueBitLength:max 960
scalar StatisticVisualizationPingRttShowcase.destination.wlan[0].mac.dcf.channelAccess.pendingQueue queueBitLength:timeavg 0.373263872
scalar StatisticVisualizationPingRttShowcase.destination.wlan[0].mac.dcf.channelAccess.pendingQueue outgoingPackets:count 505
scalar StatisticVisualizationPingRttShowcase.destination.wlan[0].mac.dcf.channelAccess.pendingQueue outgoingPacketLengths:sum 482560
scalar StatisticVisualizationPingRttShowcase.destination.wlan[0].mac.dcf.channelAccess.pendingQueue incomingPackets:count 505
scalar StatisticVisualizationPingRttShowcase.destination.wlan[0].mac.dcf.channelAccess.pendingQueue incomingPacketLengths:sum 482560
scalar StatisticVisualizationPingRttShowcase.destination.wlan[0].mac.dcf.channelAccess.pendingQueue droppedPacketsQueueOverflow:count 0
scalar StatisticVisualizationPingRttShowcase.destination.wlan[0].mac.dcf.channelAccess.pendingQueue droppedPacketLengthsQueueOverflow:sum 0
scalar StatisticVisualizationPingRttShowcase.destination.wlan[0].mac.dcf.channelAccess.inProgressFrames queueLength:max 1
scalar StatisticVisualizationPingRttShowcase.destination.wlan[0].mac.dcf.channelAccess.inProgressFrames queueLength:timeavg 0.000115790830236
scalar StatisticVisualizationPingRttShowcase.destination.wlan[0].mac.dcf.channelAccess.contention channelAccessGranted:count 505
scalar StatisticVisualizationPingRttShowcase.destination.wlan[0].mac.dcf.channelAccess.contention stateChanged:count 8070
scalar StatisticVisualizationPingRttShowcase.destination.wlan[0].mac.dcf.channelAccess channelOwnershipChanged:count 1010
scalar StatisticVisualizationPingRttShowcase.destination.wlan[0].mac.dcf.originatorMacDataService packetAggregated:count 0
scalar StatisticVisualizationPingRttShowcase.destination.wlan[0].mac.dcf.originatorMacDataService packetFragmented:count 0
scalar StatisticVisualizationPingRttShowcase.destination.wlan[0].mac.dcf.recipientMacDataService packetDeaggregated:count 0
scalar StatisticVisualizationPingRttShowcase.destination.wlan[0].mac.dcf.recipientMacDataService packetDefragmented:count 505
scalar StatisticVisualizationPingRttShowcase.destination.wlan[0].mac.dcf.recipientMacDataService packetDropDuplicateDetected:count 0
scalar StatisticVisualizationPingRttShowcase.destination.wlan[0].mac.dcf.recipientMacDataService packetDropDuplicateDetected:sum(packetBytes) 0
scalar StatisticVisualizationPingRttShowcase.destination.wlan[0].mac.dcf.recoveryProcedure retryLimitReached:count 0
scalar StatisticVisualizationPingRttShowcase.destination.wlan[0].mac.dcf frameSequenceFinished:count 505
scalar StatisticVisualizationPingRttShowcase.destination.wlan[0].mac.dcf packetReceivedFromPeer:count 1008
scalar StatisticVisualizationPingRttShowcase.destination.wlan[0].mac.dcf packetReceivedFromPeer:sum(packetBytes) 67362
scalar StatisticVisualizationPingRttShowcase.destination.wlan[0].mac.dcf packetReceivedFromPeerUnicast:count 1005
scalar StatisticVisualizationPingRttShowcase.destination.wlan[0].mac.dcf packetReceivedFromPeerUnicast:sum(packetBytes) 67170
scalar StatisticVisualizationPingRttShowcase.destination.wlan[0].mac.dcf packetReceivedFromPeerMulticast:count 3
scalar StatisticVisualizationPingRttShowcase.destination.wlan[0].mac.dcf packetReceivedFromPeerMulticast:sum(packetBytes) 192
scalar StatisticVisualizationPingRttShowcase.destination.wlan[0].mac.dcf packetReceivedFromPeerBroadcast:count 3
scalar StatisticVisualizationPingRttShowcase.destination.wlan[0].mac.dcf packetReceivedFromPeerBroadcast:sum(packetBytes) 192
scalar StatisticVisualizationPingRttShowcase.destination.wlan[0].mac.dcf packetReceivedFromPeerWithRetry:count 0
scalar StatisticVisualizationPingRttShowcase.destination.wlan[0].mac.dcf packetReceivedFromPeerWithRetry:sum(packetBytes) 0
scalar StatisticVisualizationPingRttShowcase.destination.wlan[0].mac.dcf packetReceivedFromPeerWithoutRetry:count 1008
scalar StatisticVisualizationPingRttShowcase.destination.wlan[0].mac.dcf packetReceivedFromPeerWithoutRetry:sum(packetBytes) 67362
scalar StatisticVisualizationPingRttShowcase.destination.wlan[0].mac.dcf packetSentToPeer:count 1007
scalar StatisticVisualizationPingRttShowcase.destination.wlan[0].mac.dcf packetSentToPeer:sum(packetBytes) 67348
scalar StatisticVisualizationPingRttShowcase.destination.wlan[0].mac.dcf packetSentToPeerUnicast:count 1005
scalar StatisticVisualizationPingRttShowcase.destination.wlan[0].mac.dcf packetSentToPeerUnicast:sum(packetBytes) 67220
scalar StatisticVisualizationPingRttShowcase.destination.wlan[0].mac.dcf packetSentToPeerMulticast:count 2
scalar StatisticVisualizationPingRttShowcase.destination.wlan[0].mac.dcf packetSentToPeerMulticast:sum(packetBytes) 128
scalar StatisticVisualizationPingRttShowcase.destination.wlan[0].mac.dcf packetSentToPeerBroadcast:count 2
scalar StatisticVisualizationPingRttShowcase.destination.wlan[0].mac.dcf packetSentToPeerBroadcast:sum(packetBytes) 128
scalar StatisticVisualizationPingRttShowcase.destination.wlan[0].mac.dcf packetSentToPeerWithRetry:count 0
scalar StatisticVisualizationPingRttShowcase.destination.wlan[0].mac.dcf packetSentToPeerWithRetry:sum(packetBytes) 0
scalar StatisticVisualizationPingRttShowcase.destination.wlan[0].mac.dcf packetSentToPeerWithoutRetry:count 1007
scalar StatisticVisualizationPingRttShowcase.destination.wlan[0].mac.dcf packetSentToPeerWithoutRetry:sum(packetBytes) 67348
scalar StatisticVisualizationPingRttShowcase.destination.wlan[0].mac.dcf packetDrop:count 0
scalar StatisticVisualizationPingRttShowcase.destination.wlan[0].mac.dcf packetDrop:sum(packetBytes) 0
scalar StatisticVisualizationPingRttShowcase.destination.wlan[0].mac.dcf packetDropNotAddressedToUs:count 0
scalar StatisticVisualizationPingRttShowcase.destination.wlan[0].mac.dcf packetDropNotAddressedToUs:sum(packetBytes) 0
scalar StatisticVisualizationPingRttShowcase.destination.wlan[0].mac.dcf packetDropQueueOverflow:count 0
scalar StatisticVisualizationPingRttShowcase.destination.wlan[0].mac.dcf packetDropQueueOverflow:sum(packetBytes) 0
scalar StatisticVisualizationPingRttShowcase.destination.wlan[0].mac.dcf packetDropRetryLimitReached:count 0
scalar StatisticVisualizationPingRttShowcase.destination.wlan[0].mac.dcf packetDropRetryLimitReached:sum(packetBytes) 0
scalar StatisticVisualizationPingRttShowcase.destination.wlan[0].mac.dcf linkBroken:count 0
scalar StatisticVisualizationPingRttShowcase.destination.wlan[0].mac packetReceivedFromLower:count 1008
scalar StatisticVisualizationPingRttShowcase.destination.wlan[0].mac packetReceivedFromLower:sum(packetBytes) 67362
scalar StatisticVisualizationPingRttShowcase.destination.wlan[0].mac packetSentToLower:count 1007
scalar StatisticVisualizationPingRttShowcase.destination.wlan[0].mac packetSentToLower:sum(packetBytes) 67348
scalar StatisticVisualizationPingRttShowcase.destination.wlan[0].mac packetReceivedFromUpper:count 505
scalar StatisticVisualizationPingRttShowcase.destination.wlan[0].mac packetReceivedFromUpper:sum(packetBytes) 46180
scalar StatisticVisualizationPingRttShowcase.destination.wlan[0].mac packetSentToUpper:count 505
scalar StatisticVisualizationPingRttShowcase.destination.wlan[0].mac packetSentToUpper:sum(packetBytes) 46180
scalar StatisticVisualizationPingRttShowcase.destination.wlan[0].mac packetDrop:count 0
scalar StatisticVisualizationPingRttShowcase.destination.wlan[0].mac packetDrop:sum(packetBytes) 0
scalar StatisticVisualizationPingRttShowcase.destination.wlan[0].mac packetDropIncorrectlyReceived:count 0
scalar StatisticVisualizationPingRttShowcase.destination.wlan[0].mac packetDropIncorrectlyReceived:sum(packetBytes) 0
scalar StatisticVisualizationPingRttShowcase.destination.wlan[0].mac packetDropNotAddressedToUs:count 0
scalar StatisticVisualizationPingRttShowcase.destination.wlan[0].mac packetDropNotAddressedToUs:sum(packetBytes) 0
scalar StatisticVisualizationPingRttShowcase.destination.wlan[0].mac packetDropQueueOverflow:count 0
scalar StatisticVisualizationPingRttShowcase.destination.wlan[0].mac packetDropQueueOverflow:sum(packetBytes) 0
scalar StatisticVisualizationPingRttShowcase.destination.wlan[0].mac packetDropRetryLimitReached:count 0
scalar StatisticVisualizationPingRttShowcase.destination.wlan[0].mac packetDropRetryLimitReached:sum(packetBytes) 0
scalar StatisticVisualizationPingRttShowcase.destination.wlan[0].mac packetDropDuplicateDetected:count 0
scalar StatisticVisualizationPingRttShowcase.destination.wlan[0].mac packetDropDuplicateDetected:sum(packetBytes) 0
scalar StatisticVisualizationPingRttShowcase.destination.wlan[0].mac packetDropOther:count 0
scalar StatisticVisualizationPingRttShowcase.destination.wlan[0].mac packetDropOther:sum(packetBytes) 0
scalar StatisticVisualizationPingRttShowcase.destination.wlan[0].mac linkBroken:count 0
scalar StatisticVisualizationPingRttShowcase.destination.wlan[0].radio radioMode:count 2017
scalar StatisticVisualizationPingRttShowcase.destination.wlan[0].radio receptionState:count 4031
scalar StatisticVisualizationPingRttShowcase.destination.wlan[0].radio transmissionState:count 4028
scalar StatisticVisualizationPingRttShowcase.destination.wlan[0] packetDropInterfaceDown:count 0
scalar StatisticVisualizationPingRttShowcase.destination.wlan[0] packetDropInterfaceDown:sum(packetBytes) 0
scalar StatisticVisualizationPingRttShowcase.destination.wlan[0] packetDropNoCarrier:count 0
scalar StatisticVisualizationPingRttShowcase.destination.wlan[0] packetDropNoCarrier:sum(packetBytes) 0
scalar StatisticVisualizationPingRttShowcase.destination.ipv4.ip packetDropAddressResolutionFailed:count 0
scalar StatisticVisualizationPingRttShowcase.destination.ipv4.ip packetDropAddressResolutionFailed:sum(packetBytes) 0
scalar StatisticVisualizationPingRttShowcase.destination.ipv4.ip packetDropHopLimitReached:count 0
scalar StatisticVisualizationPingRttShowcase.destination.ipv4.ip packetDropHopLimitReached:sum(packetBytes) 0
scalar StatisticVisualizationPingRttShowcase.destination.ipv4.ip packetDropForwardingDisabled:count 0
scalar StatisticVisualizationPingRttShowcase.destination.ipv4.ip packetDropForwardingDisabled:sum(packetBytes) 0
scalar StatisticVisualizationPingRttShowcase.destination.ipv4.ip packetDropLifetimeExpired:count 0
scalar StatisticVisualizationPingRttShowcase.destination.ipv4.ip packetDropLifetimeExpired:sum(packetBytes) 0
scalar StatisticVisualizationPingRttShowcase.destination.ipv4.ip packetDropNoInterfaceFound:count 0
scalar StatisticVisualizationPingRttShowcase.destination.ipv4.ip packetDropNoInterfaceFound:sum(packetBytes) 0
scalar StatisticVisualizationPingRttShowcase.destination.ipv4.ip packetDropNoRouteFound:count 0
scalar StatisticVisualizationPingRttShowcase.destination.ipv4.ip packetDropNoRouteFound:sum(packetBytes) 0
scalar StatisticVisualizationPingRttShowcase.destination.ipv4.ip packetDropUndefined:count 0
scalar StatisticVisualizationPingRttShowcase.destination.ipv4.ip packetDropUndefined:sum(packetBytes) 0
scalar StatisticVisualizationPingRttShowcase.destination.ipv4.arp arpResolutionFailed:count 0
scalar StatisticVisualizationPingRttShowcase.destination.ipv4.arp arpResolutionCompleted:count 5
scalar StatisticVisualizationPingRttShowcase.destination.ipv4.arp arpResolutionInitiated:count 2
scalar StatisticVisualizationPingRttShowcase.destination.ipv4.arp arpReplySent:count 3
scalar StatisticVisualizationPingRttShowcase.destination.ipv4.arp arpReplySent:sum(packetBytes) 84
scalar StatisticVisualizationPingRttShowcase.destination.ipv4.arp arpRequestSent:count 2
scalar StatisticVisualizationPingRttShowcase.destination.ipv4.arp arpRequestSent:sum(packetBytes) 56
scalar StatisticVisualizationPingRttShowcase.destination.udp packetReceived:count 0
scalar StatisticVisualizationPingRttShowcase.destination.udp packetReceived:sum(packetBytes) 0
scalar StatisticVisualizationPingRttShowcase.destination.udp packetSent:count 0
scalar StatisticVisualizationPingRttShowcase.destination.udp packetSent:sum(packetBytes) 0
scalar StatisticVisualizationPingRttShowcase.destination.udp passedUpPk:count 0
scalar StatisticVisualizationPingRttShowcase.destination.udp droppedPkWrongPort:count 0
scalar StatisticVisualizationPingRttShowcase.destination.udp droppedPkBadChecksum:count 0
scalar StatisticVisualizationPingRttShowcase.source.wlan[0].mac.dcf.channelAccess.pendingQueue queueingTime:histogram:count 505
scalar StatisticVisualizationPingRttShowcase.source.wlan[0].mac.dcf.channelAccess.pendingQueue queueingTime:histogram:sumweights 505
scalar StatisticVisualizationPingRttShowcase.source.wlan[0].mac.dcf.channelAccess.pendingQueue queueingTime:histogram:mean 3.1722772277228e-06
scalar StatisticVisualizationPingRttShowcase.source.wlan[0].mac.dcf.channelAccess.pendingQueue queueingTime:histogram:stddev 3.6805635240796e-05
scalar StatisticVisualizationPingRttShowcase.source.wlan[0].mac.dcf.channelAccess.pendingQueue queueingTime:histogram:min 0
scalar StatisticVisualizationPingRttShowcase.source.wlan[0].mac.dcf.channelAccess.pendingQueue queueingTime:histogram:max 0.00059
scalar StatisticVisualizationPingRttShowcase.source.wlan[0].mac.dcf.channelAccess.pendingQueue queueingTime:histogram:numbins 60
scalar StatisticVisualizationPingRttShowcase.source.wlan[0].mac.dcf.channelAccess.pendingQueue queueingTime:histogram:rangemin 0
scalar StatisticVisualizationPingRttShowcase.source.wlan[0].mac.dcf.channelAccess.pendingQueue queueingTime:histogram:rangemax 0.0006
scalar StatisticVisualizationPingRttShowcase.source.wlan[0].mac.dcf.channelAccess.pendingQueue queueingTime:histogram:underflows 0
scalar StatisticVisualizationPingRttShowcase.source.wlan[0].mac.dcf.channelAccess.pendingQueue queueingTime:histogram:overflows 0
scalar StatisticVisualizationPingRttShowcase.source.wlan[0].mac.dcf.channelAccess.pendingQueue outgoingPacketLengths:histogram:count 505
scalar StatisticVisualizationPingRttShowcase.source.wlan[0].mac.dcf.channelAccess.pendingQueue outgoingPacketLengths:histogram:sumweights 505
scalar StatisticVisualizationPingRttShowcase.source.wlan[0].mac.dcf.channelAccess.pendingQueue outgoingPacketLengths:histogram:mean 955.56435643564
scalar StatisticVisualizationPingRttShowcase.source.wlan[0].mac.dcf.channelAccess.pendingQueue outgoingPacketLengths:histogram:stddev 44.400418238053
scalar StatisticVisualizationPingRttShowcase.source.wlan[0].mac.dcf.channelAccess.pendingQueue outgoingPacketLengths:histogram:min 512
scalar StatisticVisualizationPingRttShowcase.source.wlan[0].mac.dcf.channelAccess.pendingQueue outgoingPacketLengths:histogram:max 960
scalar StatisticVisualizationPingRttShowcase.source.wlan[0].mac.dcf.channelAccess.pendingQueue outgoingPacketLengths:histogram:numbins 68
scalar StatisticVisualizationPingRttShowcase.source.wlan[0].mac.dcf.channelAccess.pendingQueue outgoingPacketLengths:histogram:rangemin 400
scalar StatisticVisualizationPingRttShowcase.source.wlan[0].mac.dcf.channelAccess.pendingQueue outgoingPacketLengths:histogram:rangemax 1080
scalar StatisticVisualizationPingRttShowcase.source.wlan[0].mac.dcf.channelAccess.pendingQueue outgoingPacketLengths:histogram:underflows 0
scalar StatisticVisualizationPingRttShowcase.source.wlan[0].mac.dcf.channelAccess.pendingQueue outgoingPacketLengths:histogram:overflows 0
scalar StatisticVisualizationPingRttShowcase.source.wlan[0].mac.dcf.channelAccess.pendingQueue flowQueueingTime:histogram:count 0
scalar StatisticVisualizationPingRttShowcase.source.wlan[0].mac.dcf.channelAccess.pendingQueue flowQueueingTime:histogram:sumweights 0
scalar StatisticVisualizationPingRttShowcase.source.wlan[0].mac.dcf.channelAccess.pendingQueue flowQueueingTime:histogram:mean -nan
scalar StatisticVisualizationPingRttShowcase.source.wlan[0].mac.dcf.channelAccess.pendingQueue flowQueueingTime:histogram:stddev nan
scalar StatisticVisualizationPingRttShowcase.source.wlan[0].mac.dcf.channelAccess.pendingQueue flowQueueingTime:histogram:min nan
scalar StatisticVisualizationPingRttShowcase.source.wlan[0].mac.dcf.channelAccess.pendingQueue flowQueueingTime:histogram:max nan
scalar StatisticVisualizationPingRttShowcase.source.wlan[0].mac.dcf.channelAccess.pendingQueue flowQueueingTime:histogram:numbins 1
scalar StatisticVisualizationPingRttShowcase.source.wlan[0].mac.dcf.channelAccess.pendingQueue flowQueueingTime:histogram:rangemin 0
scalar StatisticVisualizationPingRttShowcase.source.wlan[0].mac.dcf.channelAccess.pendingQueue flowQueueingTime:histogram:rangemax 1
scalar StatisticVisualizationPingRttShowcase.source.wlan[0].mac.dcf.channelAccess.pendingQueue flowQueueingTime:histogram:underflows 0
scalar StatisticVisualizationPingRttShowcase.source.wlan[0].mac.dcf.channelAccess.pendingQueue flowQueueingTime:histogram:overflows 0
scalar StatisticVisualizationPingRttShowcase.source.wlan[0].mac.dcf.channelAccess.pendingQueue incomingPacketLengths:histogram:count 505
scalar StatisticVisualizationPingRttShowcase.source.wlan[0].mac.dcf.channelAccess.pendingQueue incomingPacketLengths:histogram:sumweights 505
scalar StatisticVisualizationPingRttShowcase.source.wlan[0].mac.dcf.channelAccess.pendingQueue incomingPacketLengths:histogram:mean 955.56435643564
scalar StatisticVisualizationPingRttShowcase.source.wlan[0].mac.dcf.channelAccess.pendingQueue incomingPacketLengths:histogram:stddev 44.400418238053
scalar StatisticVisualizationPingRttShowcase.source.wlan[0].mac.dcf.channelAccess.pendingQueue incomingPacketLengths:histogram:min 512
scalar StatisticVisualizationPingRttShowcase.source.wlan[0].mac.dcf.channelAccess.pendingQueue incomingPacketLengths:histogram:max 960
scalar StatisticVisualizationPingRttShowcase.source.wlan[0].mac.dcf.channelAccess.pendingQueue incomingPacketLengths:histogram:numbins 68
scalar StatisticVisualizationPingRttShowcase.source.wlan[0].mac.dcf.channelAccess.pendingQueue incomingPacketLengths:histogram:rangemin 400
scalar StatisticVisualizationPingRttShowcase.source.wlan[0].mac.dcf.channelAccess.pendingQueue incomingPacketLengths:histogram:rangemax 1080
scalar StatisticVisualizationPingRttShowcase.source.wlan[0].mac.dcf.channelAccess.pendingQueue incomingPacketLengths:histogram:underflows 0
scalar StatisticVisualizationPingRttShowcase.source.wlan[0].mac.dcf.channelAccess.pendingQueue incomingPacketLengths:histogram:overflows 0
scalar StatisticVisualizationPingRttShowcase.source.wlan[0].mac.dcf.channelAccess.inProgressFrames queueingTime:histogram:count 505
scalar StatisticVisualizationPingRttShowcase.source.wlan[0].mac.dcf.channelAccess.inProgressFrames queueingTime:histogram:sumweights 505
scalar StatisticVisualizationPingRttShowcase.source.wlan[0].mac.dcf.channelAccess.inProgressFrames queueingTime:histogram:mean 0.00011455523645941
scalar StatisticVisualizationPingRttShowcase.source.wlan[0].mac.dcf.channelAccess.inProgressFrames queueingTime:histogram:stddev 5.1512177574829e-06
scalar StatisticVisualizationPingRttShowcase.source.wlan[0].mac.dcf.channelAccess.inProgressFrames queueingTime:histogram:min 5e-05
scalar StatisticVisualizationPingRttShowcase.source.wlan[0].mac.dcf.channelAccess.inProgressFrames queueingTime:histogram:max 0.000115020706
scalar StatisticVisualizationPingRttShowcase.source.wlan[0].mac.dcf.channelAccess.inProgressFrames queueingTime:histogram:numbins 50
scalar StatisticVisualizationPingRttShowcase.source.wlan[0].mac.dcf.channelAccess.inProgressFrames queueingTime:histogram:rangemin 3.2e-05
scalar StatisticVisualizationPingRttShowcase.source.wlan[0].mac.dcf.channelAccess.inProgressFrames queueingTime:histogram:rangemax 0.000132
scalar StatisticVisualizationPingRttShowcase.source.wlan[0].mac.dcf.channelAccess.inProgressFrames queueingTime:histogram:underflows 0
scalar StatisticVisualizationPingRttShowcase.source.wlan[0].mac.dcf.channelAccess.inProgressFrames queueingTime:histogram:overflows 0
scalar StatisticVisualizationPingRttShowcase.source.wlan[0].mac.dcf frameSequenceDuration:histogram:count 505
scalar StatisticVisualizationPingRttShowcase.source.wlan[0].mac.dcf frameSequenceDuration:histogram:sumweights 505
scalar StatisticVisualizationPingRttShowcase.source.wlan[0].mac.dcf frameSequenceDuration:histogram:mean 0.00011455523645941
scalar StatisticVisualizationPingRttShowcase.source.wlan[0].mac.dcf frameSequenceDuration:histogram:stddev 5.1512177574829e-06
scalar StatisticVisualizationPingRttShowcase.source.wlan[0].mac.dcf frameSequenceDuration:histogram:min 5e-05
scalar StatisticVisualizationPingRttShowcase.source.wlan[0].mac.dcf frameSequenceDuration:histogram:max 0.000115020706
scalar StatisticVisualizationPingRttShowcase.source.wlan[0].mac.dcf frameSequenceDuration:histogram:numbins 50
scalar StatisticVisualizationPingRttShowcase.source.wlan[0].mac.dcf frameSequenceDuration:histogram:rangemin 3.2e-05
scalar StatisticVisualizationPingRttShowcase.source.wlan[0].mac.dcf frameSequenceDuration:histogram:rangemax 0.000132
scalar StatisticVisualizationPingRttShowcase.source.wlan[0].mac.dcf frameSequenceDuration:histogram:underflows 0
scalar StatisticVisualizationPingRttShowcase.source.wlan[0].mac.dcf frameSequenceDuration:histogram:overflows 0
scalar StatisticVisualizationPingRttShowcase.source.wlan[0].mac.dcf frameSequenceNumPackets:histogram:count 505
scalar StatisticVisualizationPingRttShowcase.source.wlan[0].mac.dcf frameSequenceNumPackets:histogram:sumweights 505
scalar StatisticVisualizationPingRttShowcase.source.wlan[0].mac.dcf frameSequenceNumPackets:histogram:mean 1.9940594059406
scalar StatisticVisualizationPingRttShowcase.source.wlan[0].mac.dcf frameSequenceNumPackets:histogram:stddev 0.076922170233657
scalar StatisticVisualizationPingRttShowcase.source.wlan[0].mac.dcf frameSequenceNumPackets:histogram:min 1
scalar StatisticVisualizationPingRttShowcase.source.wlan[0].mac.dcf frameSequenceNumPackets:histogram:max 2
scalar StatisticVisualizationPingRttShowcase.source.wlan[0].mac.dcf frameSequenceNumPackets:histogram:numbins 3
scalar StatisticVisualizationPingRttShowcase.source.wlan[0].mac.dcf frameSequenceNumPackets:histogram:rangemin 0
scalar StatisticVisualizationPingRttShowcase.source.wlan[0].mac.dcf frameSequenceNumPackets:histogram:rangemax 3
scalar StatisticVisualizationPingRttShowcase.source.wlan[0].mac.dcf frameSequenceNumPackets:histogram:underflows 0
scalar StatisticVisualizationPingRttShowcase.source.wlan[0].mac.dcf frameSequenceNumPackets:histogram:overflows 0
scalar StatisticVisualizationPingRttShowcase.source.wlan[0].radio radioChannel:histogram:count 1
scalar StatisticVisualizationPingRttShowcase.source.wlan[0].radio radioChannel:histogram:sumweights 1
scalar StatisticVisualizationPingRttShowcase.source.wlan[0].radio radioChannel:histogram:mean 0
scalar StatisticVisualizationPingRttShowcase.source.wlan[0].radio radioChannel:histogram:stddev nan
scalar StatisticVisualizationPingRttShowcase.source.wlan[0].radio radioChannel:histogram:min 0
scalar StatisticVisualizationPingRttShowcase.source.wlan[0].radio radioChannel:histogram:max 0
scalar StatisticVisualizationPingRttShowcase.source.wlan[0].radio radioChannel:histogram:numbins 50
scalar StatisticVisualizationPingRttShowcase.source.wlan[0].radio radioChannel:histogram:rangemin -0.5
scalar StatisticVisualizationPingRttShowcase.source.wlan[0].radio radioChannel:histogram:rangemax 0.5
scalar StatisticVisualizationPingRttShowcase.source.wlan[0].radio radioChannel:histogram:underflows 0
scalar StatisticVisualizationPingRttShowcase.source.wlan[0].radio radioChannel:histogram:overflows 0
scalar StatisticVisualizationPingRttShowcase.source.wlan[0].radio minSnir:histogram:count 1007
scalar StatisticVisualizationPingRttShowcase.source.wlan[0].radio minSnir:histogram:sumweights 1007
scalar StatisticVisualizationPingRttShowcase.source.wlan[0].radio minSnir:histogram:mean 8358.2278273479
scalar StatisticVisualizationPingRttShowcase.source.wlan[0].radio minSnir:histogram:stddev 0
scalar StatisticVisualizationPingRttShowcase.source.wlan[0].radio minSnir:histogram:min 8358.2278273478
scalar StatisticVisualizationPingRttShowcase.source.wlan[0].radio minSnir:histogram:max 8358.2278273478
scalar StatisticVisualizationPingRttShowcase.source.wlan[0].radio minSnir:histogram:numbins 51
scalar StatisticVisualizationPingRttShowcase.source.wlan[0].radio minSnir:histogram:rangemin 8357.72
scalar StatisticVisualizationPingRttShowcase.source.wlan[0].radio minSnir:histogram:rangemax 8358.74
scalar StatisticVisualizationPingRttShowcase.source.wlan[0].radio minSnir:histogram:underflows 0
scalar StatisticVisualizationPingRttShowcase.source.wlan[0].radio minSnir:histogram:overflows 0
scalar StatisticVisualizationPingRttShowcase.source.wlan[0].radio packetErrorRate:histogram:count 1007
scalar StatisticVisualizationPingRttShowcase.source.wlan[0].radio packetErrorRate:histogram:sumweights 1007
scalar StatisticVisualizationPingRttShowcase.source.wlan[0].radio packetErrorRate:histogram:mean 0
scalar StatisticVisualizationPingRttShowcase.source.wlan[0].radio packetErrorRate:histogram:stddev 0
scalar StatisticVisualizationPingRttShowcase.source.wlan[0].radio packetErrorRate:histogram:min 0
scalar StatisticVisualizationPingRttShowcase.source.wlan[0].radio packetErrorRate:histogram:max 0
scalar StatisticVisualizationPingRttShowcase.source.wlan[0].radio packetErrorRate:histogram:numbins 50
scalar StatisticVisualizationPingRttShowcase.source.wlan[0].radio packetErrorRate:histogram:rangemin -0.5
scalar StatisticVisualizationPingRttShowcase.source.wlan[0].radio packetErrorRate:histogram:rangemax 0.5
scalar StatisticVisualizationPingRttShowcase.source.wlan[0].radio packetErrorRate:histogram:underflows 0
scalar StatisticVisualizationPingRttShowcase.source.wlan[0].radio packetErrorRate:histogram:overflows 0
scalar StatisticVisualizationPingRttShowcase.source.wlan[0].radio bitErrorRate:histogram:count 0
scalar StatisticVisualizationPingRttShowcase.source.wlan[0].radio bitErrorRate:histogram:sumweights 0
scalar StatisticVisualizationPingRttShowcase.source.wlan[0].radio bitErrorRate:histogram:mean -nan
scalar StatisticVisualizationPingRttShowcase.source.wlan[0].radio bitErrorRate:histogram:stddev nan
scalar StatisticVisualizationPingRttShowcase.source.wlan[0].radio bitErrorRate:histogram:min nan
scalar StatisticVisualizationPingRttShowcase.source.wlan[0].radio bitErrorRate:histogram:max nan
scalar StatisticVisualizationPingRttShowcase.source.wlan[0].radio bitErrorRate:histogram:numbins 1
scalar StatisticVisualizationPingRttShowcase.source.wlan[0].radio bitErrorRate:histogram:rangemin 0
scalar StatisticVisualizationPingRttShowcase.source.wlan[0].radio bitErrorRate:histogram:rangemax 1
scalar StatisticVisualizationPingRttShowcase.source.wlan[0].radio bitErrorRate:histogram:underflows 0
scalar StatisticVisualizationPingRttShowcase.source.wlan[0].radio bitErrorRate:histogram:overflows 0
scalar StatisticVisualizationPingRttShowcase.source.wlan[0].radio symbolErrorRate:histogram:count 0
scalar StatisticVisualizationPingRttShowcase.source.wlan[0].radio symbolErrorRate:histogram:sumweights 0
scalar StatisticVisualizationPingRttShowcase.source.wlan[0].radio symbolErrorRate:histogram:mean -nan
scalar StatisticVisualizationPingRttShowcase.source.wlan[0].radio symbolErrorRate:histogram:stddev nan
scalar StatisticVisualizationPingRttShowcase.source.wlan[0].radio symbolErrorRate:histogram:min nan
scalar StatisticVisualizationPingRttShowcase.source.wlan[0].radio symbolErrorRate:histogram:max nan
scalar StatisticVisualizationPingRttShowcase.source.wlan[0].radio symbolErrorRate:histogram:numbins 1
scalar StatisticVisualizationPingRttShowcase.source.wlan[0].radio symbolErrorRate:histogram:rangemin 0
scalar StatisticVisualizationPingRttShowcase.source.wlan[0].radio symbolErrorRate:histogram:rangemax 1
scalar StatisticVisualizationPingRttShowcase.source.wlan[0].radio symbolErrorRate:histogram:underflows 0
scalar StatisticVisualizationPingRttShowcase.source.wlan[0].radio symbolErrorRate:histogram:overflows 0
scalar StatisticVisualizationPingRttShowcase.source.app[0] rtt:histogram:count 500
scalar StatisticVisualizationPingRttShowcase.source.app[0] rtt:histogram:sumweights 500
scalar StatisticVisualizationPingRttShowcase.source.app[0] rtt:histogram:mean 0.00053599091306
scalar StatisticVisualizationPingRttShowcase.source.app[0] rtt:histogram:stddev 0.00020612969409418
scalar StatisticVisualizationPingRttShowcase.source.app[0] rtt:histogram:min 0.000235020706
scalar StatisticVisualizationPingRttShowcase.source.app[0] rtt:histogram:max 0.002060041412
scalar StatisticVisualizationPingRttShowcase.source.app[0] rtt:histogram:numbins 52
scalar StatisticVisualizationPingRttShowcase.source.app[0] rtt:histogram:rangemin 0
scalar StatisticVisualizationPingRttShowcase.source.app[0] rtt:histogram:rangemax 0.00208
scalar StatisticVisualizationPingRttShowcase.source.app[0] rtt:histogram:underflows 0
scalar StatisticVisualizationPingRttShowcase.source.app[0] rtt:histogram:overflows 0
scalar StatisticVisualizationPingRttShowcase.destination.wlan[0].mac.dcf.channelAccess.pendingQueue queueingTime:histogram:count 505
scalar StatisticVisualizationPingRttShowcase.destination.wlan[0].mac.dcf.channelAccess.pendingQueue queueingTime:histogram:sumweights 505
scalar StatisticVisualizationPingRttShowcase.destination.wlan[0].mac.dcf.channelAccess.pendingQueue queueingTime:histogram:mean 0.00038688712871287
scalar StatisticVisualizationPingRttShowcase.destination.wlan[0].mac.dcf.channelAccess.pendingQueue queueingTime:histogram:stddev 0.00018212686668399
scalar StatisticVisualizationPingRttShowcase.destination.wlan[0].mac.dcf.channelAccess.pendingQueue queueingTime:histogram:min 9.4e-05
scalar StatisticVisualizationPingRttShowcase.destination.wlan[0].mac.dcf.channelAccess.pendingQueue queueingTime:histogram:max 0.000714
scalar StatisticVisualizationPingRttShowcase.destination.wlan[0].mac.dcf.channelAccess.pendingQueue queueingTime:histogram:numbins 87
scalar StatisticVisualizationPingRttShowcase.destination.wlan[0].mac.dcf.channelAccess.pendingQueue queueingTime:histogram:rangemin 0
scalar StatisticVisualizationPingRttShowcase.destination.wlan[0].mac.dcf.channelAccess.pendingQueue queueingTime:histogram:rangemax 0.00087
scalar StatisticVisualizationPingRttShowcase.destination.wlan[0].mac.dcf.channelAccess.pendingQueue queueingTime:histogram:underflows 0
scalar StatisticVisualizationPingRttShowcase.destination.wlan[0].mac.dcf.channelAccess.pendingQueue queueingTime:histogram:overflows 0
scalar StatisticVisualizationPingRttShowcase.destination.wlan[0].mac.dcf.channelAccess.pendingQueue outgoingPacketLengths:histogram:count 505
scalar StatisticVisualizationPingRttShowcase.destination.wlan[0].mac.dcf.channelAccess.pendingQueue outgoingPacketLengths:histogram:sumweights 505
scalar StatisticVisualizationPingRttShowcase.destination.wlan[0].mac.dcf.channelAccess.pendingQueue outgoingPacketLengths:histogram:mean 955.56435643564
scalar StatisticVisualizationPingRttShowcase.destination.wlan[0].mac.dcf.channelAccess.pendingQueue outgoingPacketLengths:histogram:stddev 44.400418238053
scalar StatisticVisualizationPingRttShowcase.destination.wlan[0].mac.dcf.channelAccess.pendingQueue outgoingPacketLengths:histogram:min 512
scalar StatisticVisualizationPingRttShowcase.destination.wlan[0].mac.dcf.channelAccess.pendingQueue outgoingPacketLengths:histogram:max 960
scalar StatisticVisualizationPingRttShowcase.destination.wlan[0].mac.dcf.channelAccess.pendingQueue outgoingPacketLengths:histogram:numbins 68
scalar StatisticVisualizationPingRttShowcase.destination.wlan[0].mac.dcf.channelAccess.pendingQueue outgoingPacketLengths:histogram:rangemin 400
scalar StatisticVisualizationPingRttShowcase.destination.wlan[0].mac.dcf.channelAccess.pendingQueue outgoingPacketLengths:histogram:rangemax 1080
scalar StatisticVisualizationPingRttShowcase.destination.wlan[0].mac.dcf.channelAccess.pendingQueue outgoingPacketLengths:histogram:underflows 0
scalar StatisticVisualizationPingRttShowcase.destination.wlan[0].mac.dcf.channelAccess.pendingQueue outgoingPacketLengths:histogram:overflows 0
scalar StatisticVisualizationPingRttShowcase.destination.wlan[0].mac.dcf.channelAccess.pendingQueue flowQueueingTime:histogram:count 0
scalar StatisticVisualizationPingRttShowcase.destination.wlan[0].mac.dcf.channelAccess.pendingQueue flowQueueingTime:histogram:sumweights 0
scalar StatisticVisualizationPingRttShowcase.destination.wlan[0].mac.dcf.channelAccess.pendingQueue flowQueueingTime:histogram:mean -nan
scalar StatisticVisualizationPingRttShowcase.destination.wlan[0].mac.dcf.channelAccess.pendingQueue flowQueueingTime:histogram:stddev nan
scalar StatisticVisualizationPingRttShowcase.destination.wlan[0].mac.dcf.channelAccess.pendingQueue flowQueueingTime:histogram:min nan
scalar StatisticVisualizationPingRttShowcase.destination.wlan[0].mac.dcf.channelAccess.pendingQueue flowQueueingTime:histogram:max nan
scalar StatisticVisualizationPingRttShowcase.destination.wlan[0].mac.dcf.channelAccess.pendingQueue flowQueueingTime:histogram:numbins 1
scalar StatisticVisualizationPingRttShowcase.destination.wlan[0].mac.dcf.channelAccess.pendingQueue flowQueueingTime:histogram:rangemin 0
scalar StatisticVisualizationPingRttShowcase.destination.wlan[0].mac.dcf.channelAccess.pendingQueue flowQueueingTime:histogram:rangemax 1
scalar StatisticVisualizationPingRttShowcase.destination.wlan[0].mac.dcf.channelAccess.pendingQueue flowQueueingTime:histogram:underflows 0
scalar StatisticVisualizationPingRttShowcase.destination.wlan[0].mac.dcf.channelAccess.pendingQueue flowQueueingTime:histogram:overflows 0
scalar StatisticVisualizationPingRttShowcase.destination.wlan[0].mac.dcf.channelAccess.pendingQueue incomingPacketLengths:histogram:count 505
scalar StatisticVisualizationPingRttShowcase.destination.wlan[0].mac.dcf.channelAccess.pendingQueue incomingPacketLengths:histogram:sumweights 505
scalar StatisticVisualizationPingRttShowcase.destination.wlan[0].mac.dcf.channelAccess.pendingQueue incomingPacketLengths:histogram:mean 955.56435643564
scalar StatisticVisualizationPingRttShowcase.destination.wlan[0].mac.dcf.channelAccess.pendingQueue incomingPacketLengths:histogram:stddev 44.400418238053
scalar StatisticVisualizationPingRttShowcase.destination.wlan[0].mac.dcf.channelAccess.pendingQueue incomingPacketLengths:histogram:min 512
scalar StatisticVisualizationPingRttShowcase.destination.wlan[0].mac.dcf.channelAccess.pendingQueue incomingPacketLengths:histogram:max 960
scalar StatisticVisualizationPingRttShowcase.destination.wlan[0].mac.dcf.channelAccess.pendingQueue incomingPacketLengths:histogram:numbins 68
scalar StatisticVisualizationPingRttShowcase.destination.wlan[0].mac.dcf.channelAccess.pendingQueue incomingPacketLengths:histogram:rangemin 400
scalar StatisticVisualizationPingRttShowcase.destination.wlan[0].mac.dcf.channelAccess.pendingQueue incomingPacketLengths:histogram:rangemax 1080
scalar StatisticVisualizationPingRttShowcase.destination.wlan[0].mac.dcf.channelAccess.pendingQueue incomingPacketLengths:histogram:underflows 0
scalar StatisticVisualizationPingRttShowcase.destination.wlan[0].mac.dcf.channelAccess.pendingQueue incomingPacketLengths:histogram:overflows 0
scalar StatisticVisualizationPingRttShowcase.destination.wlan[0].mac.dcf.channelAccess.inProgressFrames queueingTime:histogram:count 505
scalar StatisticVisualizationPingRttShowcase.destination.wlan[0].mac.dcf.channelAccess.inProgressFrames queueingTime:histogram:sumweights 505
scalar StatisticVisualizationPingRttShowcase.destination.wlan[0].mac.dcf.channelAccess.inProgressFrames queueingTime:histogram:mean 0.00011464438637228
scalar StatisticVisualizationPingRttShowcase.destination.wlan[0].mac.dcf.channelAccess.inProgressFrames queueingTime:histogram:stddev 4.3606893167843e-06
scalar StatisticVisualizationPingRttShowcase.destination.wlan[0].mac.dcf.channelAccess.inProgressFrames queueingTime:histogram:min 5e-05
scalar StatisticVisualizationPingRttShowcase.destination.wlan[0].mac.dcf.channelAccess.inProgressFrames queueingTime:histogram:max 0.000115020706
scalar StatisticVisualizationPingRttShowcase.destination.wlan[0].mac.dcf.channelAccess.inProgressFrames queueingTime:histogram:numbins 48
scalar StatisticVisualizationPingRttShowcase.destination.wlan[0].mac.dcf.channelAccess.inProgressFrames queueingTime:histogram:rangemin 4.95e-05
scalar StatisticVisualizationPingRttShowcase.destination.wlan[0].mac.dcf.channelAccess.inProgressFrames queueingTime:histogram:rangemax 0.0001215
scalar StatisticVisualizationPingRttShowcase.destination.wlan[0].mac.dcf.channelAccess.inProgressFrames queueingTime:histogram:underflows 0
scalar StatisticVisualizationPingRttShowcase.destination.wlan[0].mac.dcf.channelAccess.inProgressFrames queueingTime:histogram:overflows 0
scalar StatisticVisualizationPingRttShowcase.destination.wlan[0].mac.dcf frameSequenceDuration:histogram:count 505
scalar StatisticVisualizationPingRttShowcase.destination.wlan[0].mac.dcf frameSequenceDuration:histogram:sumweights 505
scalar StatisticVisualizationPingRttShowcase.destination.wlan[0].mac.dcf frameSequenceDuration:histogram:mean 0.00011464438637228
scalar StatisticVisualizationPingRttShowcase.destination.wlan[0].mac.dcf frameSequenceDuration:histogram:stddev 4.3606893167843e-06
scalar StatisticVisualizationPingRttShowcase.destination.wlan[0].mac.dcf frameSequenceDuration:histogram:min 5e-05
scalar StatisticVisualizationPingRttShowcase.destination.wlan[0].mac.dcf frameSequenceDuration:histogram:max 0.000115020706
scalar StatisticVisualizationPingRttShowcase.destination.wlan[0].mac.dcf frameSequenceDuration:histogram:numbins 48
scalar StatisticVisualizationPingRttShowcase.destination.wlan[0].mac.dcf frameSequenceDuration:histogram:rangemin 4.95e-05
scalar StatisticVisualizationPingRttShowcase.destination.wlan[0].mac.dcf frameSequenceDuration:histogram:rangemax 0.0001215
scalar StatisticVisualizationPingRttShowcase.destination.wlan[0].mac.dcf frameSequenceDuration:histogram:underflows 0
scalar StatisticVisualizationPingRttShowcase.destination.wlan[0].mac.dcf frameSequenceDuration:histogram:overflows 0
scalar StatisticVisualizationPingRttShowcase.destination.wlan[0].mac.dcf frameSequenceNumPackets:histogram:count 505
scalar StatisticVisualizationPingRttShowcase.destination.wlan[0].mac.dcf frameSequenceNumPackets:histogram:sumweights 505
scalar StatisticVisualizationPingRttShowcase.destination.wlan[0].mac.dcf frameSequenceNumPackets:histogram:mean 1.9960396039604
scalar StatisticVisualizationPingRttShowcase.destination.wlan[0].mac.dcf frameSequenceNumPackets:histogram:stddev 0.062869214333838
scalar StatisticVisualizationPingRttShowcase.destination.wlan[0].mac.dcf frameSequenceNumPackets:histogram:min 1
scalar StatisticVisualizationPingRttShowcase.destination.wlan[0].mac.dcf frameSequenceNumPackets:histogram:max 2
scalar StatisticVisualizationPingRttShowcase.destination.wlan[0].mac.dcf frameSequenceNumPackets:histogram:numbins 2
scalar StatisticVisualizationPingRttShowcase.destination.wlan[0].mac.dcf frameSequenceNumPackets:histogram:rangemin 1
scalar StatisticVisualizationPingRttShowcase.destination.wlan[0].mac.dcf frameSequenceNumPackets:histogram:rangemax 3
scalar StatisticVisualizationPingRttShowcase.destination.wlan[0].mac.dcf frameSequenceNumPackets:histogram:underflows 0
scalar StatisticVisualizationPingRttShowcase.destination.wlan[0].mac.dcf frameSequenceNumPackets:histogram:overflows 0
scalar StatisticVisualizationPingRttShowcase.destination.wlan[0].radio radioChannel:histogram:count 1
scalar StatisticVisualizationPingRttShowcase.destination.wlan[0].radio radioChannel:histogram:sumweights 1
scalar StatisticVisualizationPingRttShowcase.destination.wlan[0].radio radioChannel:histogram:mean 0
scalar StatisticVisualizationPingRttShowcase.destination.wlan[0].radio radioChannel:histogram:stddev nan
scalar StatisticVisualizationPingRttShowcase.destination.wlan[0].radio radioChannel:histogram:min 0
scalar StatisticVisualizationPingRttShowcase.destination.wlan[0].radio radioChannel:histogram:max 0
scalar StatisticVisualizationPingRttShowcase.destination.wlan[0].radio radioChannel:histogram:numbins 50
scalar StatisticVisualizationPingRttShowcase.destination.wlan[0].radio radioChannel:histogram:rangemin -0.5
scalar StatisticVisualizationPingRttShowcase.destination.wlan[0].radio radioChannel:histogram:rangemax 0.5
scalar StatisticVisualizationPingRttShowcase.destination.wlan[0].radio radioChannel:histogram:underflows 0
scalar StatisticVisualizationPingRttShowcase.destination.wlan[0].radio radioChannel:histogram:overflows 0
scalar StatisticVisualizationPingRttShowcase.destination.wlan[0].radio minSnir:histogram:count 1008
scalar StatisticVisualizationPingRttShowcase.destination.wlan[0].radio minSnir:histogram:sumweights 1008
scalar StatisticVisualizationPingRttShowcase.destination.wlan[0].radio minSnir:histogram:mean 8358.2278273478
scalar StatisticVisualizationPingRttShowcase.destination.wlan[0].radio minSnir:histogram:stddev 0
scalar StatisticVisualizationPingRttShowcase.destination.wlan[0].radio minSnir:histogram:min 8358.2278273478
scalar StatisticVisualizationPingRttShowcase.destination.wlan[0].radio minSnir:histogram:max 8358.2278273478
scalar StatisticVisualizationPingRttShowcase.destination.wlan[0].radio minSnir:histogram:numbins 51
scalar StatisticVisualizationPingRttShowcase.destination.wlan[0].radio minSnir:histogram:rangemin 8357.72
scalar StatisticVisualizationPingRttShowcase.destination.wlan[0].radio minSnir:histogram:rangemax 8358.74
scalar StatisticVisualizationPingRttShowcase.destination.wlan[0].radio minSnir:histogram:underflows 0
scalar StatisticVisualizationPingRttShowcase.destination.wlan[0].radio minSnir:histogram:overflows 0
scalar StatisticVisualizationPingRttShowcase.destination.wlan[0].radio packetErrorRate:histogram:count 1008
scalar StatisticVisualizationPingRttShowcase.destination.wlan[0].radio packetErrorRate:histogram:sumweights 1008
scalar StatisticVisualizationPingRttShowcase.destination.wlan[0].radio packetErrorRate:histogram:mean 0
scalar StatisticVisualizationPingRttShowcase.destination.wlan[0].radio packetErrorRate:histogram:stddev 0
scalar StatisticVisualizationPingRttShowcase.destination.wlan[0].radio packetErrorRate:histogram:min 0
scalar StatisticVisualizationPingRttShowcase.destination.wlan[0].radio packetErrorRate:histogram:max 0
scalar StatisticVisualizationPingRttShowcase.destination.wlan[0].radio packetErrorRate:histogram:numbins 50
scalar StatisticVisualizationPingRttShowcase.destination.wlan[0].radio packetErrorRate:histogram:rangemin -0.5
scalar StatisticVisualizationPingRttShowcase.destination.wlan[0].radio packetErrorRate:histogram:rangemax 0.5
scalar StatisticVisualizationPingRttShowcase.destination.wlan[0].radio packetErrorRate:histogram:underflows 0
scalar StatisticVisualizationPingRttShowcase.destination.wlan[0].radio packetErrorRate:histogram:overflows 0
scalar StatisticVisualizationPingRttShowcase.destination.wlan[0].radio bitErrorRate:histogram:count 0
scalar StatisticVisualizationPingRttShowcase.destination.wlan[0].radio bitErrorRate:histogram:sumweights 0
scalar StatisticVisualizationPingRttShowcase.destination.wlan[0].radio bitErrorRate:histogram:mean -nan
scalar StatisticVisualizationPingRttShowcase.destination.wlan[0].radio bitErrorRate:histogram:stddev nan
scalar StatisticVisualizationPingRttShowcase.destination.wlan[0].radio bitErrorRate:histogram:min nan
scalar StatisticVisualizationPingRttShowcase.destination.wlan[0].radio bitErrorRate:histogram:max nan
scalar StatisticVisualizationPingRttShowcase.destination.wlan[0].radio bitErrorRate:histogram:numbins 1
scalar StatisticVisualizationPingRttShowcase.destination.wlan[0].radio bitErrorRate:histogram:rangemin 0
scalar StatisticVisualizationPingRttShowcase.destination.wlan[0].radio bitErrorRate:histogram:rangemax 1
scalar StatisticVisualizationPingRttShowcase.destination.wlan[0].radio bitErrorRate:histogram:underflows 0
scalar StatisticVisualizationPingRttShowcase.destination.wlan[0].radio bitErrorRate:histogram:overflows 0
scalar StatisticVisualizationPingRttShowcase.destination.wlan[0].radio symbolErrorRate:histogram:count 0
scalar StatisticVisualizationPingRttShowcase.destination.wlan[0].radio symbolErrorRate:histogram:sumweights 0
scalar StatisticVisualizationPingRttShowcase.destination.wlan[0].radio symbolErrorRate:histogram:mean -nan
scalar StatisticVisualizationPingRttShowcase.destination.wlan[0].radio symbolErrorRate:histogram:stddev nan
scalar StatisticVisualizationPingRttShowcase.destination.wlan[0].radio symbolErrorRate:histogram:min nan
scalar StatisticVisualizationPingRttShowcase.destination.wlan[0].radio symbolErrorRate:histogram:max nan
scalar StatisticVisualizationPingRttShowcase.destination.wlan[0].radio symbolErrorRate:histogram:numbins 1
scalar StatisticVisualizationPingRttShowcase.destination.wlan[0].radio symbolErrorRate:histogram:rangemin 0
scalar StatisticVisualizationPingRttShowcase.destination.wlan[0].radio symbolErrorRate:histogram:rangemax 1
scalar StatisticVisualizationPingRttShowcase.destination.wlan[0].radio symbolErrorRate:histogram:underflows 0
scalar StatisticVisualizationPingRttShowcase.destination.wlan[0].radio symbolErrorRate:histogram:overflows 0
statistic StatisticVisualizationPingRttShowcase.source.wlan[0].mac.dcf.channelAccess.pendingQueue queueingTime:histogram
field count 505
field mean 3.1722772277228e-06
field stddev 3.6805635240796e-05
field min 0
field max 0.00059
field sum 0.001602
field sqrsum 6.87828e-07
bin	-inf	0
bin	0	500
bin	1e-05	0
bin	2e-05	0
bin	3e-05	0
bin	4e-05	0
bin	5e-05	0
bin	6e-05	0
bin	7e-05	0
bin	8e-05	0
bin	9e-05	0
bin	0.0001	0
bin	0.00011	1
bin	0.00012	0
bin	0.00013	1
bin	0.00014	0
bin	0.00015	0
bin	0.00016	0
bin	0.00017	0
bin	0.00018	0
bin	0.00019	0
bin	0.0002	0
bin	0.00021	0
bin	0.00022	0
bin	0.00023	0
bin	0.00024	0
bin	0.00025	0
bin	0.00026	0
bin	0.00027	0
bin	0.00028	0
bin	0.00029	1
bin	0.0003	0
bin	0.00031	0
bin	0.00032	0
bin	0.00033	0
bin	0.00034	0
bin	0.00035	0
bin	0.00036	0
bin	0.00037	0
bin	0.00038	0
bin	0.00039	0
bin	0.0004	0
bin	0.00041	0
bin	0.00042	0
bin	0.00043	0
bin	0.00044	0
bin	0.00045	0
bin	0.00046	0
bin	0.00047	1
bin	0.00048	0
bin	0.00049	0
bin	0.0005	0
bin	0.00051	0
bin	0.00052	0
bin	0.00053	0
bin	0.00054	0
bin	0.00055	0
bin	0.00056	0
bin	0.00057	0
bin	0.00058	0
bin	0.00059	1
bin	0.0006	0
statistic StatisticVisualizationPingRttShowcase.source.wlan[0].mac.dcf.channelAccess.pendingQueue outgoingPacketLengths:histogram
field count 505
field mean 955.56435643564
field stddev 44.400418238053
field min 512
field max 960
field sum 482560
field sqrsum 462110720
bin	-inf	0
bin	400	0
bin	410	0
bin	420	0
bin	430	0
bin	440	0
bin	450	0
bin	460	0
bin	470	0
bin	480	0
bin	490	0
bin	500	0
bin	510	5
bin	520	0
bin	530	0
bin	540	0
bin	550	0
bin	560	0
bin	570	0
bin	580	0
bin	590	0
bin	600	0
bin	610	0
bin	620	0
bin	630	0
bin	640	0
bin	650	0
bin	660	0
bin	670	0
bin	680	0
bin	690	0
bin	700	0
bin	710	0
bin	720	0
bin	730	0
bin	740	0
bin	750	0
bin	760	0
bin	770	0
bin	780	0
bin	790	0
bin	800	0
bin	810	0
bin	820	0
bin	830	0
bin	840	0
bin	850	0
bin	860	0
bin	870	0
bin	880	0
bin	890	0
bin	900	0
bin	910	0
bin	920	0
bin	930	0
bin	940	0
bin	950	0
bin	960	500
bin	970	0
bin	980	0
bin	990	0
bin	1000	0
bin	1010	0
bin	1020	0
bin	1030	0
bin	1040	0
bin	1050	0
bin	1060	0
bin	1070	0
bin	1080	0
statistic StatisticVisualizationPingRttShowcase.source.wlan[0].mac.dcf.channelAccess.pendingQueue flowQueueingTime:histogram
field count 0
field mean -nan
field stddev nan
field min nan
field max nan
field sum 0
field sqrsum 0
bin	-inf	0
bin	0	0
bin	1	0
statistic StatisticVisualizationPingRttShowcase.source.wlan[0].mac.dcf.channelAccess.pendingQueue incomingPacketLengths:histogram
field count 505
field mean 955.56435643564
field stddev 44.400418238053
field min 512
field max 960
field sum 482560
field sqrsum 462110720
bin	-inf	0
bin	400	0
bin	410	0
bin	420	0
bin	430	0
bin	440	0
bin	450	0
bin	460	0
bin	470	0
bin	480	0
bin	490	0
bin	500	0
bin	510	5
bin	520	0
bin	530	0
bin	540	0
bin	550	0
bin	560	0
bin	570	0
bin	580	0
bin	590	0
bin	600	0
bin	610	0
bin	620	0
bin	630	0
bin	640	0
bin	650	0
bin	660	0
bin	670	0
bin	680	0
bin	690	0
bin	700	0
bin	710	0
bin	720	0
bin	730	0
bin	740	0
bin	750	0
bin	760	0
bin	770	0
bin	780	0
bin	790	0
bin	800	0
bin	810	0
bin	820	0
bin	830	0
bin	840	0
bin	850	0
bin	860	0
bin	870	0
bin	880	0
bin	890	0
bin	900	0
bin	910	0
bin	920	0
bin	930	0
bin	940	0
bin	950	0
bin	960	500
bin	970	0
bin	980	0
bin	990	0
bin	1000	0
bin	1010	0
bin	1020	0
bin	1030	0
bin	1040	0
bin	1050	0
bin	1060	0
bin	1070	0
bin	1080	0
statistic StatisticVisualizationPingRttShowcase.source.wlan[0].mac.dcf.channelAccess.inProgressFrames queueingTime:histogram
field count 505
field mean 0.00011455523645941
field stddev 5.1512177574829e-06
field min 5e-05
field max 0.000115020706
field sum 0.057850394412
field sqrsum 6.6404392735066e-06
bin	-inf	0
bin	3.2e-05	0
bin	3.4e-05	0
bin	3.6e-05	0
bin	3.8e-05	0
bin	4e-05	0
bin	4.2e-05	0
bin	4.4e-05	0
bin	4.6e-05	0
bin	4.8e-05	3
bin	5e-05	0
bin	5.2e-05	0
bin	5.4e-05	0
bin	5.6e-05	0
bin	5.8e-05	0
bin	6e-05	0
bin	6.2e-05	0
bin	6.4e-05	0
bin	6.6e-05	0
bin	6.8e-05	0
bin	7e-05	0
bin	7.2e-05	0
bin	7.4e-05	0
bin	7.6e-05	0
bin	7.8e-05	0
bin	8e-05	0
bin	8.2e-05	0
bin	8.4e-05	0
bin	8.6e-05	0
bin	8.8e-05	0
bin	9e-05	0
bin	9.2e-05	0
bin	9.4e-05	2
bin	9.6e-05	0
bin	9.8e-05	0
bin	0.0001	0
bin	0.000102	0
bin	0.000104	0
bin	0.000106	0
bin	0.000108	0
bin	0.00011	0
bin	0.000112	0
bin	0.000114	500
bin	0.000116	0
bin	0.000118	0
bin	0.00012	0
bin	0.000122	0
bin	0.000124	0
bin	0.000126	0
bin	0.000128	0
bin	0.00013	0
bin	0.000132	0
statistic StatisticVisualizationPingRttShowcase.source.wlan[0].mac.dcf frameSequenceDuration:histogram
field count 505
field mean 0.00011455523645941
field stddev 5.1512177574829e-06
field min 5e-05
field max 0.000115020706
field sum 0.057850394412
field sqrsum 6.6404392735066e-06
bin	-inf	0
bin	3.2e-05	0
bin	3.4e-05	0
bin	3.6e-05	0
bin	3.8e-05	0
bin	4e-05	0
bin	4.2e-05	0
bin	4.4e-05	0
bin	4.6e-05	0
bin	4.8e-05	3
bin	5e-05	0
bin	5.2e-05	0
bin	5.4e-05	0
bin	5.6e-05	0
bin	5.8e-05	0
bin	6e-05	0
bin	6.2e-05	0
bin	6.4e-05	0
bin	6.6e-05	0
bin	6.8e-05	0
bin	7e-05	0
bin	7.2e-05	0
bin	7.4e-05	0
bin	7.6e-05	0
bin	7.8e-05	0
bin	8e-05	0
bin	8.2e-05	0
bin	8.4e-05	0
bin	8.6e-05	0
bin	8.8e-05	0
bin	9e-05	0
bin	9.2e-05	0
bin	9.4e-05	2
bin	9.6e-05	0
bin	9.8e-05	0
bin	0.0001	0
bin	0.000102	0
bin	0.000104	0
bin	0.000106	0
bin	0.000108	0
bin	0.00011	0
bin	0.000112	0
bin	0.000114	500
bin	0.000116	0
bin	0.000118	0
bin	0.00012	0
bin	0.000122	0
bin	0.000124	0
bin	0.000126	0
bin	0.000128	0
bin	0.00013	0
bin	0.000132	0
statistic StatisticVisualizationPingRttShowcase.source.wlan[0].mac.dcf frameSequenceNumPackets:histogram
field count 505
field mean 1.9940594059406
field stddev 0.076922170233657
field min 1
field max 2
field sum 1007
field sqrsum 2011
bin	-inf	0
bin	0	0
bin	1	3
bin	2	502
bin	3	0
statistic StatisticVisualizationPingRttShowcase.source.wlan[0].radio radioChannel:histogram
field count 1
field mean 0
field stddev nan
field min 0
field max 0
field sum 0
field sqrsum 0
bin	-inf	0
bin	-0.5	0
bin	-0.48	0
bin	-0.46	0
bin	-0.44	0
bin	-0.42	0
bin	-0.4	0
bin	-0.38	0
bin	-0.36	0
bin	-0.34	0
bin	-0.32	0
bin	-0.3	0
bin	-0.28	0
bin	-0.26	0
bin	-0.24	0
bin	-0.22	0
bin	-0.2	0
bin	-0.18	0
bin	-0.16	0
bin	-0.14	0
bin	-0.12	0
bin	-0.1	0
bin	-0.08	0
bin	-0.06	0
bin	-0.04	0
bin	-0.02	0
bin	0	1
bin	0.02	0
bin	0.04	0
bin	0.06	0
bin	0.08	0
bin	0.1	0
bin	0.12	0
bin	0.14	0
bin	0.16	0
bin	0.18	0
bin	0.2	0
bin	0.22	0
bin	0.24	0
bin	0.26	0
bin	0.28	0
bin	0.3	0
bin	0.32	0
bin	0.34	0
bin	0.36	0
bin	0.38	0
bin	0.4	0
bin	0.42	0
bin	0.44	0
bin	0.46	0
bin	0.48	0
bin	0.5	0
statistic StatisticVisualizationPingRttShowcase.source.wlan[0].radio minSnir:histogram
field count 1007
field mean 8358.2278273479
field stddev 0
field min 8358.2278273478
field max 8358.2278273478
field sum 8416735.4221393
field sqrsum 70348992220.748
bin	-inf	0
bin	8357.72	0
bin	8357.74	0
bin	8357.76	0
bin	8357.78	0
bin	8357.8	0
bin	8357.82	0
bin	8357.84	0
bin	8357.86	0
bin	8357.88	0
bin	8357.9	0
bin	8357.92	0
bin	8357.94	0
bin	8357.96	0
bin	8357.98	0
bin	8358	0
bin	8358.02	0
bin	8358.04	0
bin	8358.06	0
bin	8358.08	0
bin	8358.1	0
bin	8358.12	0
bin	8358.14	0
bin	8358.16	0
bin	8358.18	0
bin	8358.2	0
bin	8358.22	1007
bin	8358.24	0
bin	8358.26	0
bin	8358.28	0
bin	8358.3	0
bin	8358.32	0
bin	8358.34	0
bin	8358.36	0
bin	8358.38	0
bin	8358.4	0
bin	8358.42	0
bin	8358.44	0
bin	8358.46	0
bin	8358.48	0
bin	8358.5	0
bin	8358.52	0
bin	8358.54	0
bin	8358.56	0
bin	8358.58	0
bin	8358.6	0
bin	8358.62	0
bin	8358.64	0
bin	8358.66	0
bin	8358.68	0
bin	8358.7	0
bin	8358.72	0
bin	8358.74	0
statistic StatisticVisualizationPingRttShowcase.source.wlan[0].radio packetErrorRate:histogram
field count 1007
field mean 0
field stddev 0
field min 0
field max 0
field sum 0
field sqrsum 0
bin	-inf	0
bin	-0.5	0
bin	-0.48	0
bin	-0.46	0
bin	-0.44	0
bin	-0.42	0
bin	-0.4	0
bin	-0.38	0
bin	-0.36	0
bin	-0.34	0
bin	-0.32	0
bin	-0.3	0
bin	-0.28	0
bin	-0.26	0
bin	-0.24	0
bin	-0.22	0
bin	-0.2	0
bin	-0.18	0
bin	-0.16	0
bin	-0.14	0
bin	-0.12	0
bin	-0.1	0
bin	-0.08	0
bin	-0.06	0
bin	-0.04	0
bin	-0.02	0
bin	0	1007
bin	0.02	0
bin	0.04	0
bin	0.06	0
bin	0.08	0
bin	0.1	0
bin	0.12	0
bin	0.14	0
bin	0.16	0
bin	0.18	0
bin	0.2	0
bin	0.22	0
bin	0.24	0
bin	0.26	0
bin	0.28	0
bin	0.3	0
bin	0.32	0
bin	0.34	0
bin	0.36	0
bin	0.38	0
bin	0.4	0
bin	0.42	0
bin	0.44	0
bin	0.46	0
bin	0.48	0
bin	0.5	0
statistic StatisticVisualizationPingRttShowcase.source.wlan[0].radio bitErrorRate:histogram
field count 0
field mean -nan
field stddev nan
field min nan
field max nan
field sum 0
field sqrsum 0
bin	-inf	0
bin	0	0
bin	1	0
statistic StatisticVisualizationPingRttShowcase.source.wlan[0].radio symbolErrorRate:histogram
field count 0
field mean -nan
field stddev nan
field min nan
field max nan
field sum 0
field sqrsum 0
bin	-inf	0
bin	0	0
bin	1	0
statistic StatisticVisualizationPingRttShowcase.source.app[0] rtt:histogram
field count 500
field mean 0.00053599091306
field stddev 0.00020612969409418
field min 0.000235020706
field max 0.002060041412
field sum 0.26799545653
field sqrsum 0.00016484536538434
bin	-inf	0
bin	0	0
bin	4e-05	0
bin	8e-05	0
bin	0.00012	0
bin	0.00016	0
bin	0.0002	19
bin	0.00024	30
bin	0.00028	39
bin	0.00032	31
bin	0.00036	35
bin	0.0004	41
bin	0.00044	28
bin	0.00048	32
bin	0.00052	21
bin	0.00056	33
bin	0.0006	34
bin	0.00064	27
bin	0.00068	31
bin	0.00072	32
bin	0.00076	29
bin	0.0008	23
bin	0.00084	11
bin	0.00088	0
bin	0.00092	0
bin	0.00096	0
bin	0.001	0
bin	0.00104	0
bin	0.00108	0
bin	0.00112	0
bin	0.00116	0
bin	0.0012	0
bin	0.00124	0
bin	0.00128	0
bin	0.00132	1
bin	0.00136	0
bin	0.0014	0
bin	0.00144	2
bin	0.00148	0
bin	0.00152	0
bin	0.00156	0
bin	0.0016	0
bin	0.00164	0
bin	0.00168	0
bin	0.00172	0
bin	0.00176	0
bin	0.0018	0
bin	0.00184	0
bin	0.00188	0
bin	0.00192	0
bin	0.00196	0
bin	0.002	0
bin	0.00204	1
bin	0.00208	0
statistic StatisticVisualizationPingRttShowcase.destination.wlan[0].mac.dcf.channelAccess.pendingQueue queueingTime:histogram
field count 505
field mean 0.00038688712871287
field stddev 0.00018212686668399
field min 9.4e-05
field max 0.000714
field sum 0.195378
field sqrsum 9.2307012e-05
bin	-inf	0
bin	0	0
bin	1e-05	0
bin	2e-05	0
bin	3e-05	0
bin	4e-05	0
bin	5e-05	0
bin	6e-05	0
bin	7e-05	0
bin	8e-05	0
bin	9e-05	19
bin	0.0001	0
bin	0.00011	13
bin	0.00012	0
bin	0.00013	17
bin	0.00014	0
bin	0.00015	22
bin	0.00016	0
bin	0.00017	17
bin	0.00018	0
bin	0.00019	14
bin	0.0002	0
bin	0.00021	19
bin	0.00022	0
bin	0.00023	18
bin	0.00024	0
bin	0.00025	18
bin	0.00026	0
bin	0.00027	23
bin	0.00028	0
bin	0.00029	18
bin	0.0003	0
bin	0.00031	17
bin	0.00032	0
bin	0.00033	11
bin	0.00034	0
bin	0.00035	19
bin	0.00036	0
bin	0.00037	13
bin	0.00038	0
bin	0.00039	12
bin	0.0004	0
bin	0.00041	10
bin	0.00042	0
bin	0.00043	15
bin	0.00044	0
bin	0.00045	18
bin	0.00046	1
bin	0.00047	20
bin	0.00048	0
bin	0.00049	15
bin	0.0005	0
bin	0.00051	18
bin	0.00052	0
bin	0.00053	11
bin	0.00054	0
bin	0.00055	13
bin	0.00056	0
bin	0.00057	18
bin	0.00058	0
bin	0.00059	16
bin	0.0006	0
bin	0.00061	17
bin	0.00062	0
bin	0.00063	16
bin	0.00064	0
bin	0.00065	13
bin	0.00066	0
bin	0.00067	12
bin	0.00068	0
bin	0.00069	11
bin	0.0007	0
bin	0.00071	11
bin	0.00072	0
bin	0.00073	0
bin	0.00074	0
bin	0.00075	0
bin	0.00076	0
bin	0.00077	0
bin	0.00078	0
bin	0.00079	0
bin	0.0008	0
bin	0.00081	0
bin	0.00082	0
bin	0.00083	0
bin	0.00084	0
bin	0.00085	0
bin	0.00086	0
bin	0.00087	0
statistic StatisticVisualizationPingRttShowcase.destination.wlan[0].mac.dcf.channelAccess.pendingQueue outgoingPacketLengths:histogram
field count 505
field mean 955.56435643564
field stddev 44.400418238053
field min 512
field max 960
field sum 482560
field sqrsum 462110720
bin	-inf	0
bin	400	0
bin	410	0
bin	420	0
bin	430	0
bin	440	0
bin	450	0
bin	460	0
bin	470	0
bin	480	0
bin	490	0
bin	500	0
bin	510	5
bin	520	0
bin	530	0
bin	540	0
bin	550	0
bin	560	0
bin	570	0
bin	580	0
bin	590	0
bin	600	0
bin	610	0
bin	620	0
bin	630	0
bin	640	0
bin	650	0
bin	660	0
bin	670	0
bin	680	0
bin	690	0
bin	700	0
bin	710	0
bin	720	0
bin	730	0
bin	740	0
bin	750	0
bin	760	0
bin	770	0
bin	780	0
bin	790	0
bin	800	0
bin	810	0
bin	820	0
bin	830	0
bin	840	0
bin	850	0
bin	860	0
bin	870	0
bin	880	0
bin	890	0
bin	900	0
bin	910	0
bin	920	0
bin	930	0
bin	940	0
bin	950	0
bin	960	500
bin	970	0
bin	980	0
bin	990	0
bin	1000	0
bin	1010	0
bin	1020	0
bin	1030	0
bin	1040	0
bin	1050	0
bin	1060	0
bin	1070	0
bin	1080	0
statistic StatisticVisualizationPingRttShowcase.destination.wlan[0].mac.dcf.channelAccess.pendingQueue flowQueueingTime:histogram
field count 0
field mean -nan
field stddev nan
field min nan
field max nan
field sum 0
field sqrsum 0
bin	-inf	0
bin	0	0
bin	1	0
statistic StatisticVisualizationPingRttShowcase.destination.wlan[0].mac.dcf.channelAccess.pendingQueue incomingPacketLengths:histogram
field count 505
field mean 955.56435643564
field stddev 44.400418238053
field min 512
field max 960
field sum 482560
field sqrsum 462110720
bin	-inf	0
bin	400	0
bin	410	0
bin	420	0
bin	430	0
bin	440	0
bin	450	0
bin	460	0
bin	470	0
bin	480	0
bin	490	0
bin	500	0
bin	510	5
bin	520	0
bin	530	0
bin	540	0
bin	550	0
bin	560	0
bin	570	0
bin	580	0
bin	590	0
bin	600	0
bin	610	0
bin	620	0
bin	630	0
bin	640	0
bin	650	0
bin	660	0
bin	670	0
bin	680	0
bin	690	0
bin	700	0
bin	710	0
bin	720	0
bin	730	0
bin	740	0
bin	750	0
bin	760	0
bin	770	0
bin	780	0
bin	790	0
bin	800	0
bin	810	0
bin	820	0
bin	830	0
bin	840	0
bin	850	0
bin	860	0
bin	870	0
bin	880	0
bin	890	0
bin	900	0
bin	910	0
bin	920	0
bin	930	0
bin	940	0
bin	950	0
bin	960	500
bin	970	0
bin	980	0
bin	990	0
bin	1000	0
bin	1010	0
bin	1020	0
bin	1030	0
bin	1040	0
bin	1050	0
bin	1060	0
bin	1070	0
bin	1080	0
statistic StatisticVisualizationPingRttShowcase.destination.wlan[0].mac.dcf.channelAccess.inProgressFrames queueingTime:histogram
field count 505
field mean 0.00011464438637228
field stddev 4.3606893167843e-06
field min 5e-05
field max 0.000115020706
field sum 0.057895415118
field sqrsum 6.6469682080754e-06
bin	-inf	0
bin	4.95e-05	2
bin	5.1e-05	0
bin	5.25e-05	0
bin	5.4e-05	0
bin	5.55e-05	0
bin	5.7e-05	0
bin	5.85e-05	0
bin	6e-05	0
bin	6.15e-05	0
bin	6.3e-05	0
bin	6.45e-05	0
bin	6.6e-05	0
bin	6.75e-05	0
bin	6.9e-05	0
bin	7.05e-05	0
bin	7.2e-05	0
bin	7.35e-05	0
bin	7.5e-05	0
bin	7.65e-05	0
bin	7.8e-05	0
bin	7.95e-05	0
bin	8.1e-05	0
bin	8.25e-05	0
bin	8.4e-05	0
bin	8.55e-05	0
bin	8.7e-05	0
bin	8.85e-05	0
bin	9e-05	0
bin	9.15e-05	0
bin	9.3e-05	0
bin	9.45e-05	3
bin	9.6e-05	0
bin	9.75e-05	0
bin	9.9e-05	0
bin	0.0001005	0
bin	0.000102	0
bin	0.0001035	0
bin	0.000105	0
bin	0.0001065	0
bin	0.000108	0
bin	0.0001095	0
bin	0.000111	0
bin	0.0001125	0
bin	0.000114	500
bin	0.0001155	0
bin	0.000117	0
bin	0.0001185	0
bin	0.00012	0
bin	0.0001215	0
statistic StatisticVisualizationPingRttShowcase.destination.wlan[0].mac.dcf frameSequenceDuration:histogram
field count 505
field mean 0.00011464438637228
field stddev 4.3606893167843e-06
field min 5e-05
field max 0.000115020706
field sum 0.057895415118
field sqrsum 6.6469682080754e-06
bin	-inf	0
bin	4.95e-05	2
bin	5.1e-05	0
bin	5.25e-05	0
bin	5.4e-05	0
bin	5.55e-05	0
bin	5.7e-05	0
bin	5.85e-05	0
bin	6e-05	0
bin	6.15e-05	0
bin	6.3e-05	0
bin	6.45e-05	0
bin	6.6e-05	0
bin	6.75e-05	0
bin	6.9e-05	0
bin	7.05e-05	0
bin	7.2e-05	0
bin	7.35e-05	0
bin	7.5e-05	0
bin	7.65e-05	0
bin	7.8e-05	0
bin	7.95e-05	0
bin	8.1e-05	0
bin	8.25e-05	0
bin	8.4e-05	0
bin	8.55e-05	0
bin	8.7e-05	0
bin	8.85e-05	0
bin	9e-05	0
bin	9.15e-05	0
bin	9.3e-05	0
bin	9.45e-05	3
bin	9.6e-05	0
bin	9.75e-05	0
bin	9.9e-05	0
bin	0.0001005	0
bin	0.000102	0
bin	0.0001035	0
bin	0.000105	0
bin	0.0001065	0
bin	0.000108	0
bin	0.0001095	0
bin	0.000111	0
bin	0.0001125	0
bin	0.000114	500
bin	0.0001155	0
bin	0.000117	0
bin	0.0001185	0
bin	0.00012	0
bin	0.0001215	0
statistic StatisticVisualizationPingRttShowcase.destination.wlan[0].mac.dcf frameSequenceNumPackets:histogram
field count 505
field mean 1.9960396039604
field stddev 0.062869214333838
field min 1
field max 2
field sum 1008
field sqrsum 2014
bin	-inf	0
bin	1	2
bin	2	503
bin	3	0
statistic StatisticVisualizationPingRttShowcase.destination.wlan[0].radio radioChannel:histogram
field count 1
field mean 0
field stddev nan
field min 0
field max 0
field sum 0
field sqrsum 0
bin	-inf	0
bin	-0.5	0
bin	-0.48	0
bin	-0.46	0
bin	-0.44	0
bin	-0.42	0
bin	-0.4	0
bin	-0.38	0
bin	-0.36	0
bin	-0.34	0
bin	-0.32	0
bin	-0.3	0
bin	-0.28	0
bin	-0.26	0
bin	-0.24	0
bin	-0.22	0
bin	-0.2	0
bin	-0.18	0
bin	-0.16	0
bin	-0.14	0
bin	-0.12	0
bin	-0.1	0
bin	-0.08	0
bin	-0.06	0
bin	-0.04	0
bin	-0.02	0
bin	0	1
bin	0.02	0
bin	0.04	0
bin	0.06	0
bin	0.08	0
bin	0.1	0
bin	0.12	0
bin	0.14	0
bin	0.16	0
bin	0.18	0
bin	0.2	0
bin	0.22	0
bin	0.24	0
bin	0.26	0
bin	0.28	0
bin	0.3	0
bin	0.32	0
bin	0.34	0
bin	0.36	0
bin	0.38	0
bin	0.4	0
bin	0.42	0
bin	0.44	0
bin	0.46	0
bin	0.48	0
bin	0.5	0
statistic StatisticVisualizationPingRttShowcase.destination.wlan[0].radio minSnir:histogram
field count 1008
field mean 8358.2278273478
field stddev 0
field min 8358.2278273478
field max 8358.2278273478
field sum 8425093.6499666
field sqrsum 70418852193.161
bin	-inf	0
bin	8357.72	0
bin	8357.74	0
bin	8357.76	0
bin	8357.78	0
bin	8357.8	0
bin	8357.82	0
bin	8357.84	0
bin	8357.86	0
bin	8357.88	0
bin	8357.9	0
bin	8357.92	0
bin	8357.94	0
bin	8357.96	0
bin	8357.98	0
bin	8358	0
bin	8358.02	0
bin	8358.04	0
bin	8358.06	0
bin	8358.08	0
bin	8358.1	0
bin	8358.12	0
bin	8358.14	0
bin	8358.16	0
bin	8358.18	0
bin	8358.2	0
bin	8358.22	1008
bin	8358.24	0
bin	8358.26	0
bin	8358.28	0
bin	8358.3	0
bin	8358.32	0
bin	8358.34	0
bin	8358.36	0
bin	8358.38	0
bin	8358.4	0
bin	8358.42	0
bin	8358.44	0
bin	8358.46	0
bin	8358.48	0
bin	8358.5	0
bin	8358.52	0
bin	8358.54	0
bin	8358.56	0
bin	8358.58	0
bin	8358.6	0
bin	8358.62	0
bin	8358.64	0
bin	8358.66	0
bin	8358.68	0
bin	8358.7	0
bin	8358.72	0
bin	8358.74	0
statistic StatisticVisualizationPingRttShowcase.destination.wlan[0].radio packetErrorRate:histogram
field count 1008
field mean 0
field stddev 0
field min 0
field max 0
field sum 0
[...]
scalar StatisticVisualizationPingRttShowcase.destination.wlan[0].radio radioMode:vector:sumweights 2017
scalar StatisticVisualizationPingRttShowcase.destination.wlan[0].radio radioMode:vector:mean 2.4972731779871
scalar StatisticVisualizationPingRttShowcase.destination.wlan[0].radio radioMode:vector:stddev 0.50603255788766
scalar StatisticVisualizationPingRttShowcase.destination.wlan[0].radio radioMode:vector:min 0
scalar StatisticVisualizationPingRttShowcase.destination.wlan[0].radio radioMode:vector:max 3
scalar StatisticVisualizationPingRttShowcase.destination.wlan[0].radio radioMode:vector:starttime 0
scalar StatisticVisualizationPingRttShowcase.destination.wlan[0].radio radioMode:vector:endtime 499.84456025444
scalar StatisticVisualizationPingRttShowcase.destination.wlan[0].radio receptionState:vector:count 4031
scalar StatisticVisualizationPingRttShowcase.destination.wlan[0].radio receptionState:vector:sum 5040
scalar StatisticVisualizationPingRttShowcase.destination.wlan[0].radio receptionState:vector:sumweights 4031
scalar StatisticVisualizationPingRttShowcase.destination.wlan[0].radio receptionState:vector:mean 1.2503100967502
scalar StatisticVisualizationPingRttShowcase.destination.wlan[0].radio receptionState:vector:stddev 1.089817194175
scalar StatisticVisualizationPingRttShowcase.destination.wlan[0].radio receptionState:vector:min 0
scalar StatisticVisualizationPingRttShowcase.destination.wlan[0].radio receptionState:vector:max 3
scalar StatisticVisualizationPingRttShowcase.destination.wlan[0].radio receptionState:vector:starttime 0
scalar StatisticVisualizationPingRttShowcase.destination.wlan[0].radio receptionState:vector:endtime 499.84460527515
scalar StatisticVisualizationPingRttShowcase.destination.wlan[0].radio transmissionState:vector:count 4028
scalar StatisticVisualizationPingRttShowcase.destination.wlan[0].radio transmissionState:vector:sum 4028
scalar StatisticVisualizationPingRttShowcase.destination.wlan[0].radio transmissionState:vector:sumweights 4028
scalar StatisticVisualizationPingRttShowcase.destination.wlan[0].radio transmissionState:vector:mean 1
scalar StatisticVisualizationPingRttShowcase.destination.wlan[0].radio transmissionState:vector:stddev 0.70719457146328
scalar StatisticVisualizationPingRttShowcase.destination.wlan[0].radio transmissionState:vector:min 0
scalar StatisticVisualizationPingRttShowcase.destination.wlan[0].radio transmissionState:vector:max 2
scalar StatisticVisualizationPingRttShowcase.destination.wlan[0].radio transmissionState:vector:starttime 0.844546254443
scalar StatisticVisualizationPingRttShowcase.destination.wlan[0].radio transmissionState:vector:endtime 499.84456025444
scalar StatisticVisualizationPingRttShowcase.destination.wlan[0].radio radioChannel:vector:count 1
scalar StatisticVisualizationPingRttShowcase.destination.wlan[0].radio radioChannel:vector:sum 0
scalar StatisticVisualizationPingRttShowcase.destination.wlan[0].radio radioChannel:vector:sumweights 1
scalar StatisticVisualizationPingRttShowcase.destination.wlan[0].radio radioChannel:vector:mean 0
scalar StatisticVisualizationPingRttShowcase.destination.wlan[0].radio radioChannel:vector:stddev nan
scalar StatisticVisualizationPingRttShowcase.destination.wlan[0].radio radioChannel:vector:min 0
scalar StatisticVisualizationPingRttShowcase.destination.wlan[0].radio radioChannel:vector:max 0
scalar StatisticVisualizationPingRttShowcase.destination.wlan[0].radio radioChannel:vector:starttime 0
scalar StatisticVisualizationPingRttShowcase.destination.wlan[0].radio radioChannel:vector:endtime 0
scalar StatisticVisualizationPingRttShowcase.destination.wlan[0] packetDropInterfaceDown:vector(packetBytes):count 0
scalar StatisticVisualizationPingRttShowcase.destination.wlan[0] packetDropInterfaceDown:vector(packetBytes):sum 0
scalar StatisticVisualizationPingRttShowcase.destination.wlan[0] packetDropInterfaceDown:vector(packetBytes):sumweights 0
scalar StatisticVisualizationPingRttShowcase.destination.wlan[0] packetDropInterfaceDown:vector(packetBytes):mean -nan
scalar StatisticVisualizationPingRttShowcase.destination.wlan[0] packetDropInterfaceDown:vector(packetBytes):stddev nan
scalar StatisticVisualizationPingRttShowcase.destination.wlan[0] packetDropInterfaceDown:vector(packetBytes):min inf
scalar StatisticVisualizationPingRttShowcase.destination.wlan[0] packetDropInterfaceDown:vector(packetBytes):max -inf
scalar StatisticVisualizationPingRttShowcase.destination.wlan[0] packetDropInterfaceDown:vector(packetBytes):starttime nan
scalar StatisticVisualizationPingRttShowcase.destination.wlan[0] packetDropInterfaceDown:vector(packetBytes):endtime nan
scalar StatisticVisualizationPingRttShowcase.destination.wlan[0] packetDropNoCarrier:vector(packetBytes):count 0
scalar StatisticVisualizationPingRttShowcase.destination.wlan[0] packetDropNoCarrier:vector(packetBytes):sum 0
scalar StatisticVisualizationPingRttShowcase.destination.wlan[0] packetDropNoCarrier:vector(packetBytes):sumweights 0
scalar StatisticVisualizationPingRttShowcase.destination.wlan[0] packetDropNoCarrier:vector(packetBytes):mean -nan
scalar StatisticVisualizationPingRttShowcase.destination.wlan[0] packetDropNoCarrier:vector(packetBytes):stddev nan
scalar StatisticVisualizationPingRttShowcase.destination.wlan[0] packetDropNoCarrier:vector(packetBytes):min inf
scalar StatisticVisualizationPingRttShowcase.destination.wlan[0] packetDropNoCarrier:vector(packetBytes):max -inf
scalar StatisticVisualizationPingRttShowcase.destination.wlan[0] packetDropNoCarrier:vector(packetBytes):starttime nan
scalar StatisticVisualizationPingRttShowcase.destination.wlan[0] packetDropNoCarrier:vector(packetBytes):endtime nan
scalar StatisticVisualizationPingRttShowcase.destination.ipv4.ip packetDropAddressResolutionFailed:vector(packetBytes):count 0
scalar StatisticVisualizationPingRttShowcase.destination.ipv4.ip packetDropAddressResolutionFailed:vector(packetBytes):sum 0
scalar StatisticVisualizationPingRttShowcase.destination.ipv4.ip packetDropAddressResolutionFailed:vector(packetBytes):sumweights 0
scalar StatisticVisualizationPingRttShowcase.destination.ipv4.ip packetDropAddressResolutionFailed:vector(packetBytes):mean -nan
scalar StatisticVisualizationPingRttShowcase.destination.ipv4.ip packetDropAddressResolutionFailed:vector(packetBytes):stddev nan
scalar StatisticVisualizationPingRttShowcase.destination.ipv4.ip packetDropAddressResolutionFailed:vector(packetBytes):min inf
scalar StatisticVisualizationPingRttShowcase.destination.ipv4.ip packetDropAddressResolutionFailed:vector(packetBytes):max -inf
scalar StatisticVisualizationPingRttShowcase.destination.ipv4.ip packetDropAddressResolutionFailed:vector(packetBytes):starttime nan
scalar StatisticVisualizationPingRttShowcase.destination.ipv4.ip packetDropAddressResolutionFailed:vector(packetBytes):endtime nan
scalar StatisticVisualizationPingRttShowcase.destination.ipv4.ip packetDropHopLimitReached:vector(packetBytes):count 0
scalar StatisticVisualizationPingRttShowcase.destination.ipv4.ip packetDropHopLimitReached:vector(packetBytes):sum 0
scalar StatisticVisualizationPingRttShowcase.destination.ipv4.ip packetDropHopLimitReached:vector(packetBytes):sumweights 0
scalar StatisticVisualizationPingRttShowcase.destination.ipv4.ip packetDropHopLimitReached:vector(packetBytes):mean -nan
scalar StatisticVisualizationPingRttShowcase.destination.ipv4.ip packetDropHopLimitReached:vector(packetBytes):stddev nan
scalar StatisticVisualizationPingRttShowcase.destination.ipv4.ip packetDropHopLimitReached:vector(packetBytes):min inf
scalar StatisticVisualizationPingRttShowcase.destination.ipv4.ip packetDropHopLimitReached:vector(packetBytes):max -inf
scalar StatisticVisualizationPingRttShowcase.destination.ipv4.ip packetDropHopLimitReached:vector(packetBytes):starttime nan
scalar StatisticVisualizationPingRttShowcase.destination.ipv4.ip packetDropHopLimitReached:vector(packetBytes):endtime nan
scalar StatisticVisualizationPingRttShowcase.destination.ipv4.ip packetDropForwardingDisabled:vector(packetBytes):count 0
scalar StatisticVisualizationPingRttShowcase.destination.ipv4.ip packetDropForwardingDisabled:vector(packetBytes):sum 0
scalar StatisticVisualizationPingRttShowcase.destination.ipv4.ip packetDropForwardingDisabled:vector(packetBytes):sumweights 0
scalar StatisticVisualizationPingRttShowcase.destination.ipv4.ip packetDropForwardingDisabled:vector(packetBytes):mean -nan
scalar StatisticVisualizationPingRttShowcase.destination.ipv4.ip packetDropForwardingDisabled:vector(packetBytes):stddev nan
scalar StatisticVisualizationPingRttShowcase.destination.ipv4.ip packetDropForwardingDisabled:vector(packetBytes):min inf
scalar StatisticVisualizationPingRttShowcase.destination.ipv4.ip packetDropForwardingDisabled:vector(packetBytes):max -inf
scalar StatisticVisualizationPingRttShowcase.destination.ipv4.ip packetDropForwardingDisabled:vector(packetBytes):starttime nan
scalar StatisticVisualizationPingRttShowcase.destination.ipv4.ip packetDropForwardingDisabled:vector(packetBytes):endtime nan
scalar StatisticVisualizationPingRttShowcase.destination.ipv4.ip packetDropLifetimeExpired:vector(packetBytes):count 0
scalar StatisticVisualizationPingRttShowcase.destination.ipv4.ip packetDropLifetimeExpired:vector(packetBytes):sum 0
scalar StatisticVisualizationPingRttShowcase.destination.ipv4.ip packetDropLifetimeExpired:vector(packetBytes):sumweights 0
scalar StatisticVisualizationPingRttShowcase.destination.ipv4.ip packetDropLifetimeExpired:vector(packetBytes):mean -nan
scalar StatisticVisualizationPingRttShowcase.destination.ipv4.ip packetDropLifetimeExpired:vector(packetBytes):stddev nan
scalar StatisticVisualizationPingRttShowcase.destination.ipv4.ip packetDropLifetimeExpired:vector(packetBytes):min inf
scalar StatisticVisualizationPingRttShowcase.destination.ipv4.ip packetDropLifetimeExpired:vector(packetBytes):max -inf
scalar StatisticVisualizationPingRttShowcase.destination.ipv4.ip packetDropLifetimeExpired:vector(packetBytes):starttime nan
scalar StatisticVisualizationPingRttShowcase.destination.ipv4.ip packetDropLifetimeExpired:vector(packetBytes):endtime nan
scalar StatisticVisualizationPingRttShowcase.destination.ipv4.ip packetDropNoInterfaceFound:vector(packetBytes):count 0
scalar StatisticVisualizationPingRttShowcase.destination.ipv4.ip packetDropNoInterfaceFound:vector(packetBytes):sum 0
scalar StatisticVisualizationPingRttShowcase.destination.ipv4.ip packetDropNoInterfaceFound:vector(packetBytes):sumweights 0
scalar StatisticVisualizationPingRttShowcase.destination.ipv4.ip packetDropNoInterfaceFound:vector(packetBytes):mean -nan
scalar StatisticVisualizationPingRttShowcase.destination.ipv4.ip packetDropNoInterfaceFound:vector(packetBytes):stddev nan
scalar StatisticVisualizationPingRttShowcase.destination.ipv4.ip packetDropNoInterfaceFound:vector(packetBytes):min inf
scalar StatisticVisualizationPingRttShowcase.destination.ipv4.ip packetDropNoInterfaceFound:vector(packetBytes):max -inf
scalar StatisticVisualizationPingRttShowcase.destination.ipv4.ip packetDropNoInterfaceFound:vector(packetBytes):starttime nan
scalar StatisticVisualizationPingRttShowcase.destination.ipv4.ip packetDropNoInterfaceFound:vector(packetBytes):endtime nan
scalar StatisticVisualizationPingRttShowcase.destination.ipv4.ip packetDropNoRouteFound:vector(packetBytes):count 0
scalar StatisticVisualizationPingRttShowcase.destination.ipv4.ip packetDropNoRouteFound:vector(packetBytes):sum 0
scalar StatisticVisualizationPingRttShowcase.destination.ipv4.ip packetDropNoRouteFound:vector(packetBytes):sumweights 0
scalar StatisticVisualizationPingRttShowcase.destination.ipv4.ip packetDropNoRouteFound:vector(packetBytes):mean -nan
scalar StatisticVisualizationPingRttShowcase.destination.ipv4.ip packetDropNoRouteFound:vector(packetBytes):stddev nan
scalar StatisticVisualizationPingRttShowcase.destination.ipv4.ip packetDropNoRouteFound:vector(packetBytes):min inf
scalar StatisticVisualizationPingRttShowcase.destination.ipv4.ip packetDropNoRouteFound:vector(packetBytes):max -inf
scalar StatisticVisualizationPingRttShowcase.destination.ipv4.ip packetDropNoRouteFound:vector(packetBytes):starttime nan
scalar StatisticVisualizationPingRttShowcase.destination.ipv4.ip packetDropNoRouteFound:vector(packetBytes):endtime nan
scalar StatisticVisualizationPingRttShowcase.destination.ipv4.ip packetDropUndefined:vector(packetBytes):count 0
scalar StatisticVisualizationPingRttShowcase.destination.ipv4.ip packetDropUndefined:vector(packetBytes):sum 0
scalar StatisticVisualizationPingRttShowcase.destination.ipv4.ip packetDropUndefined:vector(packetBytes):sumweights 0
scalar StatisticVisualizationPingRttShowcase.destination.ipv4.ip packetDropUndefined:vector(packetBytes):mean -nan
scalar StatisticVisualizationPingRttShowcase.destination.ipv4.ip packetDropUndefined:vector(packetBytes):stddev nan
scalar StatisticVisualizationPingRttShowcase.destination.ipv4.ip packetDropUndefined:vector(packetBytes):min inf
scalar StatisticVisualizationPingRttShowcase.destination.ipv4.ip packetDropUndefined:vector(packetBytes):max -inf
scalar StatisticVisualizationPingRttShowcase.destination.ipv4.ip packetDropUndefined:vector(packetBytes):starttime nan
scalar StatisticVisualizationPingRttShowcase.destination.ipv4.ip packetDropUndefined:vector(packetBytes):endtime nan
scalar StatisticVisualizationPingRttShowcase.destination.ipv4.arp arpRequestSent:vector(packetBytes):count 2
scalar StatisticVisualizationPingRttShowcase.destination.ipv4.arp arpRequestSent:vector(packetBytes):sum 56
scalar StatisticVisualizationPingRttShowcase.destination.ipv4.arp arpRequestSent:vector(packetBytes):sumweights 2
scalar StatisticVisualizationPingRttShowcase.destination.ipv4.arp arpRequestSent:vector(packetBytes):mean 28
scalar StatisticVisualizationPingRttShowcase.destination.ipv4.arp arpRequestSent:vector(packetBytes):stddev 0
scalar StatisticVisualizationPingRttShowcase.destination.ipv4.arp arpRequestSent:vector(packetBytes):min 28
scalar StatisticVisualizationPingRttShowcase.destination.ipv4.arp arpRequestSent:vector(packetBytes):max 28
scalar StatisticVisualizationPingRttShowcase.destination.ipv4.arp arpRequestSent:vector(packetBytes):starttime 120.84433625444
scalar StatisticVisualizationPingRttShowcase.destination.ipv4.arp arpRequestSent:vector(packetBytes):endtime 361.84433625444
scalar StatisticVisualizationPingRttShowcase.destination.ipv4.arp arpReplySent:vector(packetBytes):count 3
scalar StatisticVisualizationPingRttShowcase.destination.ipv4.arp arpReplySent:vector(packetBytes):sum 84
scalar StatisticVisualizationPingRttShowcase.destination.ipv4.arp arpReplySent:vector(packetBytes):sumweights 3
scalar StatisticVisualizationPingRttShowcase.destination.ipv4.arp arpReplySent:vector(packetBytes):mean 28
scalar StatisticVisualizationPingRttShowcase.destination.ipv4.arp arpReplySent:vector(packetBytes):stddev 0
scalar StatisticVisualizationPingRttShowcase.destination.ipv4.arp arpReplySent:vector(packetBytes):min 28
scalar StatisticVisualizationPingRttShowcase.destination.ipv4.arp arpReplySent:vector(packetBytes):max 28
scalar StatisticVisualizationPingRttShowcase.destination.ipv4.arp arpReplySent:vector(packetBytes):starttime 0.844316254443
scalar StatisticVisualizationPingRttShowcase.destination.ipv4.arp arpReplySent:vector(packetBytes):endtime 482.84431625444
scalar StatisticVisualizationPingRttShowcase.destination.udp packetSent:vector(packetBytes):count 0
scalar StatisticVisualizationPingRttShowcase.destination.udp packetSent:vector(packetBytes):sum 0
scalar StatisticVisualizationPingRttShowcase.destination.udp packetSent:vector(packetBytes):sumweights 0
scalar StatisticVisualizationPingRttShowcase.destination.udp packetSent:vector(packetBytes):mean -nan
scalar StatisticVisualizationPingRttShowcase.destination.udp packetSent:vector(packetBytes):stddev nan
scalar StatisticVisualizationPingRttShowcase.destination.udp packetSent:vector(packetBytes):min inf
scalar StatisticVisualizationPingRttShowcase.destination.udp packetSent:vector(packetBytes):max -inf
scalar StatisticVisualizationPingRttShowcase.destination.udp packetSent:vector(packetBytes):starttime nan
scalar StatisticVisualizationPingRttShowcase.destination.udp packetSent:vector(packetBytes):endtime nan
scalar StatisticVisualizationPingRttShowcase.destination.udp packetReceived:vector(packetBytes):count 0
scalar StatisticVisualizationPingRttShowcase.destination.udp packetReceived:vector(packetBytes):sum 0
scalar StatisticVisualizationPingRttShowcase.destination.udp packetReceived:vector(packetBytes):sumweights 0
scalar StatisticVisualizationPingRttShowcase.destination.udp packetReceived:vector(packetBytes):mean -nan
scalar StatisticVisualizationPingRttShowcase.destination.udp packetReceived:vector(packetBytes):stddev nan
scalar StatisticVisualizationPingRttShowcase.destination.udp packetReceived:vector(packetBytes):min inf
scalar StatisticVisualizationPingRttShowcase.destination.udp packetReceived:vector(packetBytes):max -inf
scalar StatisticVisualizationPingRttShowcase.destination.udp packetReceived:vector(packetBytes):starttime nan
scalar StatisticVisualizationPingRttShowcase.destination.udp packetReceived:vector(packetBytes):endtime nan
scalar StatisticVisualizationPingRttShowcase.destination.udp passedUpPk:vector(count):count 1
scalar StatisticVisualizationPingRttShowcase.destination.udp passedUpPk:vector(count):sum 0
scalar StatisticVisualizationPingRttShowcase.destination.udp passedUpPk:vector(count):sumweights 1
scalar StatisticVisualizationPingRttShowcase.destination.udp passedUpPk:vector(count):mean 0
scalar StatisticVisualizationPingRttShowcase.destination.udp passedUpPk:vector(count):stddev nan
scalar StatisticVisualizationPingRttShowcase.destination.udp passedUpPk:vector(count):min 0
scalar StatisticVisualizationPingRttShowcase.destination.udp passedUpPk:vector(count):max 0
scalar StatisticVisualizationPingRttShowcase.destination.udp passedUpPk:vector(count):starttime 0
scalar StatisticVisualizationPingRttShowcase.destination.udp passedUpPk:vector(count):endtime 0
scalar StatisticVisualizationPingRttShowcase.destination.udp droppedPkWrongPort:vector(count):count 1
scalar StatisticVisualizationPingRttShowcase.destination.udp droppedPkWrongPort:vector(count):sum 0
scalar StatisticVisualizationPingRttShowcase.destination.udp droppedPkWrongPort:vector(count):sumweights 1
scalar StatisticVisualizationPingRttShowcase.destination.udp droppedPkWrongPort:vector(count):mean 0
scalar StatisticVisualizationPingRttShowcase.destination.udp droppedPkWrongPort:vector(count):stddev nan
scalar StatisticVisualizationPingRttShowcase.destination.udp droppedPkWrongPort:vector(count):min 0
scalar StatisticVisualizationPingRttShowcase.destination.udp droppedPkWrongPort:vector(count):max 0
scalar StatisticVisualizationPingRttShowcase.destination.udp droppedPkWrongPort:vector(count):starttime 0
scalar StatisticVisualizationPingRttShowcase.destination.udp droppedPkWrongPort:vector(count):endtime 0
scalar StatisticVisualizationPingRttShowcase.destination.udp droppedPkBadChecksum:vector(count):count 1
scalar StatisticVisualizationPingRttShowcase.destination.udp droppedPkBadChecksum:vector(count):sum 0
scalar StatisticVisualizationPingRttShowcase.destination.udp droppedPkBadChecksum:vector(count):sumweights 1
scalar StatisticVisualizationPingRttShowcase.destination.udp droppedPkBadChecksum:vector(count):mean 0
scalar StatisticVisualizationPingRttShowcase.destination.udp droppedPkBadChecksum:vector(count):stddev nan
scalar StatisticVisualizationPingRttShowcase.destination.udp droppedPkBadChecksum:vector(count):min 0
scalar StatisticVisualizationPingRttShowcase.destination.udp droppedPkBadChecksum:vector(count):max 0
scalar StatisticVisualizationPingRttShowcase.destination.udp droppedPkBadChecksum:vector(count):starttime 0
scalar StatisticVisualizationPingRttShowcase.destination.udp droppedPkBadChecksum:vector(count):endtime 0

