version 3
run EIGRP-IPv6_exp2_interface-down_global-addr-0-20240219-17:52:25-107017
attr configname EIGRP-IPv6_exp2_interface-down_global-addr
attr datetime 20240219-17:52:25
attr datetimef 20240219-175225
attr experiment EIGRP-IPv6_exp2_interface-down_global-addr
attr inifile omnetpp.ini
attr iterationvars ""
attr iterationvarsd ""
attr iterationvarsf ""
attr measurement ""
attr network EigrpTestNetwork
attr processid 107017
attr repetition 0
attr replication #0
attr resultdir results
attr runnumber 0
attr seedset 0
config **.param-recording false
config **.vector-recording false
config image-path /home/levy/workspace/inet/images
config output-scalar-file results/omnetpp.ini-EIGRP-IPv6_exp2_interface-down_global-addr-#0.sca
config sim-time-limit 3min
config **.scenarioManager.script "xmldoc(\"scenario2.xml\")"
config **.R1.eigrp.configData "xmldoc(\"config_global-addr.xml\", \"Devices/Router[@id='2001:db8:a::1']/\")"
config **.R2.eigrp.configData "xmldoc(\"config_global-addr.xml\", \"Devices/Router[@id='2001:db8:b::1']/\")"
config **.R3.eigrp.configData "xmldoc(\"config_global-addr.xml\", \"Devices/Router[@id='2001:db8:c::1']/\")"
config **.R4.eigrp.configData "xmldoc(\"config_global-addr.xml\", \"Devices/Router[@id='2001:db8:d::1']/\")"
config network EigrpTestNetwork
config sim-time-limit 3min
config num-rngs 2
config **.eigrp.*.rng-0 1
config **.interfaceTable.displayAddresses true
config **.R*.hasIpv6 true
config **.R*.hasIpv4 true
config **.R1.eigrp.configData "xmldoc(\"config.xml\", \"Devices/Router[@id='2001:db8:a::1']/\")"
config **.R2.eigrp.configData "xmldoc(\"config.xml\", \"Devices/Router[@id='2001:db8:b::1']/\")"
config **.R3.eigrp.configData "xmldoc(\"config.xml\", \"Devices/Router[@id='2001:db8:c::1']/\")"
config **.R4.eigrp.configData "xmldoc(\"config.xml\", \"Devices/Router[@id='2001:db8:d::1']/\")"
config **.scenarioManager.script "xmldoc(\"scenario.xml\")"

scalar EigrpTestNetwork.R1.ethernet pauseSent:count 0
attr recordingmode count
attr title "pause sent, count"
scalar EigrpTestNetwork.R1.ethernet pauseSent:sum 0
attr recordingmode sum
attr title "pause sent, sum"
scalar EigrpTestNetwork.R1.ethernet decapPk:count 234
attr interpolationmode none
attr recordingmode count
attr source decapPk
attr title "packets decapsulated, count"
scalar EigrpTestNetwork.R1.ethernet decapPk:sum(packetBytes) 17956
attr interpolationmode none
attr recordingmode sum(packetBytes)
attr source decapPk
attr title "packets decapsulated, sum(packetBytes)"
scalar EigrpTestNetwork.R1.ethernet encapPk:count 234
attr interpolationmode none
attr recordingmode count
attr source encapPk
attr title "packets encapsulated, count"
scalar EigrpTestNetwork.R1.ethernet encapPk:sum(packetBytes) 16888
attr interpolationmode none
attr recordingmode sum(packetBytes)
attr source encapPk
attr title "packets encapsulated, sum(packetBytes)"
scalar EigrpTestNetwork.R1.lo[0].lo rcvdPkFromHl:count 0
attr interpolationmode none
attr recordingmode count
attr source packetReceivedFromUpper
attr title "packets received from higher layer, count"
scalar EigrpTestNetwork.R1.lo[0].lo rcvdPkFromHl:sum(packetBytes) 0
attr interpolationmode none
attr recordingmode sum(packetBytes)
attr source packetReceivedFromUpper
attr title "packets received from higher layer, sum(packetBytes)"
scalar EigrpTestNetwork.R1.lo[0].lo passedUpPk:count 0
attr interpolationmode none
attr recordingmode count
attr source packetSentToUpper
attr title "packets passed to higher layer, count"
scalar EigrpTestNetwork.R1.lo[0].lo passedUpPk:sum(packetBytes) 0
attr interpolationmode none
attr recordingmode sum(packetBytes)
attr source packetSentToUpper
attr title "packets passed to higher layer, sum(packetBytes)"
scalar EigrpTestNetwork.R1.lo[0] packetDropInterfaceDown:count 0
attr interpolationmode none
attr recordingmode count
attr source packetDropReasonIsInterfaceDown(packetDropped)
attr title "packet drops: interface down, count"
scalar EigrpTestNetwork.R1.lo[0] packetDropInterfaceDown:sum(packetBytes) 0
attr interpolationmode none
attr recordingmode sum(packetBytes)
attr source packetDropReasonIsInterfaceDown(packetDropped)
attr title "packet drops: interface down, sum(packetBytes)"
scalar EigrpTestNetwork.R1.lo[0] packetDropNoCarrier:count 0
attr interpolationmode none
attr recordingmode count
attr source packetDropReasonIsNoCarrier(packetDropped)
attr title "packet drops: no carrier, count"
scalar EigrpTestNetwork.R1.lo[0] packetDropNoCarrier:sum(packetBytes) 0
attr interpolationmode none
attr recordingmode sum(packetBytes)
attr source packetDropReasonIsNoCarrier(packetDropped)
attr title "packet drops: no carrier, sum(packetBytes)"
scalar EigrpTestNetwork.R1.eth[0].queue queueLength:last 0
attr autoWarmupFilter false
attr interpolationmode sample-hold
attr recordingmode last
attr source "warmup(atomic(constant0(packetPushEnded) + count(packetPushStarted) - count(packetPulled) - count(packetRemoved) - count(packetDropped)))"
attr title "queue length, last"
attr unit pk
scalar EigrpTestNetwork.R1.eth[0].queue queueLength:max 2
attr autoWarmupFilter false
attr interpolationmode sample-hold
attr recordingmode max
attr source "warmup(atomic(constant0(packetPushEnded) + count(packetPushStarted) - count(packetPulled) - count(packetRemoved) - count(packetDropped)))"
attr title "queue length, max"
attr unit pk
scalar EigrpTestNetwork.R1.eth[0].queue queueLength:timeavg 8.5844444444444e-07
attr autoWarmupFilter false
attr interpolationmode sample-hold
attr recordingmode timeavg
attr source "warmup(atomic(constant0(packetPushEnded) + count(packetPushStarted) - count(packetPulled) - count(packetRemoved) - count(packetDropped)))"
attr title "queue length, timeavg"
attr unit pk
scalar EigrpTestNetwork.R1.eth[0].queue queueBitLength:last 0
attr autoWarmupFilter false
attr interpolationmode sample-hold
attr recordingmode last
attr source "warmup(atomic(constant0(packetPushEnded) + sum(packetLength(packetPushStarted)) - sum(packetLength(packetPulled)) - sum(packetLength(packetRemoved)) - sum(packetLength(packetDropped))))"
attr title "queue bit length, last"
attr unit b
scalar EigrpTestNetwork.R1.eth[0].queue queueBitLength:max 3072
attr autoWarmupFilter false
attr interpolationmode sample-hold
attr recordingmode max
attr source "warmup(atomic(constant0(packetPushEnded) + sum(packetLength(packetPushStarted)) - sum(packetLength(packetPulled)) - sum(packetLength(packetRemoved)) - sum(packetLength(packetDropped))))"
attr title "queue bit length, max"
attr unit b
scalar EigrpTestNetwork.R1.eth[0].queue queueBitLength:timeavg 0.00070941155555556
attr autoWarmupFilter false
attr interpolationmode sample-hold
attr recordingmode timeavg
attr source "warmup(atomic(constant0(packetPushEnded) + sum(packetLength(packetPushStarted)) - sum(packetLength(packetPulled)) - sum(packetLength(packetRemoved)) - sum(packetLength(packetDropped))))"
attr title "queue bit length, timeavg"
attr unit b
statistic EigrpTestNetwork.R1.eth[0].queue queueingTime:histogram
field count 123
field mean 1.2562601626016e-06
field stddev 3.6643880795208e-06
field min 0
field max 2.528e-05
field sum 0.00015452
field sqrsum 1.8323016e-09
attr interpolationmode none
attr recordingmode histogram
attr source queueingTime(packetPulled)
attr title "queueing times"
attr unit s
bin	-inf	0
bin	0	103
bin	5e-07	0
bin	1e-06	3
bin	1.5e-06	1
bin	2e-06	0
bin	2.5e-06	0
bin	3e-06	1
bin	3.5e-06	0
bin	4e-06	0
bin	4.5e-06	0
bin	5e-06	1
bin	5.5e-06	0
bin	6e-06	0
bin	6.5e-06	3
bin	7e-06	2
bin	7.5e-06	3
bin	8e-06	0
bin	8.5e-06	2
bin	9e-06	0
bin	9.5e-06	0
bin	1e-05	1
bin	1.05e-05	0
bin	1.1e-05	1
bin	1.15e-05	0
bin	1.2e-05	0
bin	1.25e-05	0
bin	1.3e-05	0
bin	1.35e-05	0
bin	1.4e-05	0
bin	1.45e-05	0
bin	1.5e-05	0
bin	1.55e-05	0
bin	1.6e-05	0
bin	1.65e-05	0
bin	1.7e-05	0
bin	1.75e-05	0
bin	1.8e-05	1
bin	1.85e-05	0
bin	1.9e-05	0
bin	1.95e-05	0
bin	2e-05	0
bin	2.05e-05	0
bin	2.1e-05	0
bin	2.15e-05	0
bin	2.2e-05	0
bin	2.25e-05	0
bin	2.3e-05	0
bin	2.35e-05	0
bin	2.4e-05	0
bin	2.45e-05	0
bin	2.5e-05	1
bin	2.55e-05	0
bin	2.6e-05	0
bin	2.65e-05	0
bin	2.7e-05	0
bin	2.75e-05	0
bin	2.8e-05	0
bin	2.85e-05	0
bin	2.9e-05	0
bin	2.95e-05	0
bin	3e-05	0
bin	3.05e-05	0
bin	3.1e-05	0
bin	3.15e-05	0
bin	3.2e-05	0
scalar EigrpTestNetwork.R1.eth[0].queue outgoingPackets:count 123
attr recordingmode count
attr source packetPulled
attr title "outgoing packets, count"
attr unit pk
scalar EigrpTestNetwork.R1.eth[0].queue outgoingPacketLengths:sum 88016
attr interpolationmode none
attr recordingmode sum
attr source packetLength(packetPulled)
attr title "outgoing packet lengths, sum"
attr unit b
statistic EigrpTestNetwork.R1.eth[0].queue outgoingPacketLengths:histogram
field count 123
field mean 715.57723577236
field stddev 315.54472827654
field min 368
field max 2256
field sum 88016
field sqrsum 75129600
attr interpolationmode none
attr recordingmode histogram
attr source packetLength(packetPulled)
attr title "outgoing packet lengths"
attr unit b
bin	-inf	0
bin	0	0
bin	50	0
bin	100	0
bin	150	0
bin	200	0
bin	250	0
bin	300	0
bin	350	2
bin	400	0
bin	450	10
bin	500	0
bin	550	41
bin	600	12
bin	650	0
bin	700	42
bin	750	0
bin	800	3
bin	850	0
bin	900	0
bin	950	0
bin	1000	0
bin	1050	0
bin	1100	0
bin	1150	7
bin	1200	0
bin	1250	0
bin	1300	0
bin	1350	0
bin	1400	0
bin	1450	0
bin	1500	1
bin	1550	0
bin	1600	0
bin	1650	0
bin	1700	2
bin	1750	0
bin	1800	0
bin	1850	1
bin	1900	0
bin	1950	0
bin	2000	0
bin	2050	0
bin	2100	0
bin	2150	0
bin	2200	0
bin	2250	2
bin	2300	0
bin	2350	0
bin	2400	0
bin	2450	0
bin	2500	0
bin	2550	0
bin	2600	0
bin	2650	0
bin	2700	0
bin	2750	0
statistic EigrpTestNetwork.R1.eth[0].queue flowQueueingTime:histogram
field count 0
field mean -nan
field stddev nan
field min nan
field max nan
field sum 0
field sqrsum 0
attr interpolationmode none
attr recordingmode histogram
attr source queueingTime(demuxFlow(packetPulled))
attr title "flow queueing times"
attr unit s
bin	-inf	0
bin	0	0
bin	1	0
scalar EigrpTestNetwork.R1.eth[0].queue incomingPackets:count 123
attr recordingmode count
attr source packetPushStarted
attr title "incoming packets, count"
attr unit pk
scalar EigrpTestNetwork.R1.eth[0].queue incomingPacketLengths:sum 88016
attr interpolationmode none
attr recordingmode sum
attr source packetLength(packetPushStarted)
attr title "incoming packet lengths, sum"
attr unit b
statistic EigrpTestNetwork.R1.eth[0].queue incomingPacketLengths:histogram
field count 123
field mean 715.57723577236
field stddev 315.54472827654
field min 368
field max 2256
field sum 88016
field sqrsum 75129600
attr interpolationmode none
attr recordingmode histogram
attr source packetLength(packetPushStarted)
attr title "incoming packet lengths"
attr unit b
bin	-inf	0
bin	0	0
bin	50	0
bin	100	0
bin	150	0
bin	200	0
bin	250	0
bin	300	0
bin	350	2
bin	400	0
bin	450	10
bin	500	0
bin	550	41
bin	600	12
bin	650	0
bin	700	42
bin	750	0
bin	800	3
bin	850	0
bin	900	0
bin	950	0
bin	1000	0
bin	1050	0
bin	1100	0
bin	1150	7
bin	1200	0
bin	1250	0
bin	1300	0
bin	1350	0
bin	1400	0
bin	1450	0
bin	1500	1
bin	1550	0
bin	1600	0
bin	1650	0
bin	1700	2
bin	1750	0
bin	1800	0
bin	1850	1
bin	1900	0
bin	1950	0
bin	2000	0
bin	2050	0
bin	2100	0
bin	2150	0
bin	2200	0
bin	2250	2
bin	2300	0
bin	2350	0
bin	2400	0
bin	2450	0
bin	2500	0
bin	2550	0
bin	2600	0
bin	2650	0
bin	2700	0
bin	2750	0
scalar EigrpTestNetwork.R1.eth[0].queue droppedPacketsQueueOverflow:count 0
attr interpolationmode none
attr recordingmode count
attr source packetDropReasonIsQueueOverflow(packetDropped)
attr title "dropped packets: queue overflow, count"
attr unit pk
scalar EigrpTestNetwork.R1.eth[0].queue droppedPacketLengthsQueueOverflow:sum 0
attr interpolationmode none
attr recordingmode sum
attr source packetLength(packetDropReasonIsQueueOverflow(packetDropped))
attr title "dropped packet lengths: queue overflow, sum"
attr unit b
scalar EigrpTestNetwork.R1.eth[0].mac "simulated time" 180
scalar EigrpTestNetwork.R1.eth[0].mac full-duplex 1
scalar EigrpTestNetwork.R1.eth[0].mac "frames/sec sent" 0.68333333333333
scalar EigrpTestNetwork.R1.eth[0].mac "frames/sec rcvd" 0.68333333333333
scalar EigrpTestNetwork.R1.eth[0].mac "bits/sec sent" 493.24444444444
scalar EigrpTestNetwork.R1.eth[0].mac "bits/sec rcvd" 507.02222222222
scalar EigrpTestNetwork.R1.eth[0].mac "rx channel idle (%)" 99.999449244444
scalar EigrpTestNetwork.R1.eth[0].mac "rx channel utilization (%)" 0.00055075555555556
scalar EigrpTestNetwork.R1.eth[0].mac rxPausePkUnits:count 0
attr interpolationmode none
attr recordingmode count
attr title "pause units received, count"
scalar EigrpTestNetwork.R1.eth[0].mac rxPausePkUnits:sum 0
attr interpolationmode none
attr recordingmode sum
attr title "pause units received, sum"
scalar EigrpTestNetwork.R1.eth[0].mac txPausePkUnits:count 0
attr interpolationmode none
attr recordingmode count
attr title "pause units sent, count"
scalar EigrpTestNetwork.R1.eth[0].mac txPausePkUnits:sum 0
attr interpolationmode none
attr recordingmode sum
attr title "pause units sent, sum"
scalar EigrpTestNetwork.R1.eth[0].mac rxPkOk:count 123
attr interpolationmode none
attr recordingmode count
attr source rxPkOk
attr title "packets received OK, count"
scalar EigrpTestNetwork.R1.eth[0].mac rxPkOk:sum(packetBytes) 11408
attr interpolationmode none
attr recordingmode sum(packetBytes)
attr source rxPkOk
attr title "packets received OK, sum(packetBytes)"
statistic EigrpTestNetwork.R1.eth[0].mac throughput:histogram
field count 1800
field mean 536.97777777778
field stddev 5442.7651903967
field min 0
field max 172160
field sum 966560
field sqrsum 53812044800
attr interpolationmode linear
attr recordingmode histogram
attr source throughput(transmissionEnded)
attr title throughput
attr unit bps
bin	-inf	0
bin	0	1715
bin	2000	0
bin	4000	1
bin	6000	80
bin	8000	0
bin	10000	0
bin	12000	0
bin	14000	0
bin	16000	0
bin	18000	0
bin	20000	0
bin	22000	0
bin	24000	0
bin	26000	0
bin	28000	0
bin	30000	1
bin	32000	0
bin	34000	0
bin	36000	0
bin	38000	0
bin	40000	0
bin	42000	0
bin	44000	0
bin	46000	0
bin	48000	0
bin	50000	0
bin	52000	0
bin	54000	0
bin	56000	0
bin	58000	0
bin	60000	0
bin	62000	0
bin	64000	0
bin	66000	0
bin	68000	0
bin	70000	0
bin	72000	0
bin	74000	0
bin	76000	0
bin	78000	0
bin	80000	0
bin	82000	0
bin	84000	1
bin	86000	0
bin	88000	0
bin	90000	0
bin	92000	0
bin	94000	0
bin	96000	0
bin	98000	0
bin	100000	0
bin	102000	0
bin	104000	0
bin	106000	0
bin	108000	1
bin	110000	0
bin	112000	0
bin	114000	0
bin	116000	0
bin	118000	0
bin	120000	0
bin	122000	0
bin	124000	0
bin	126000	0
bin	128000	0
bin	130000	0
bin	132000	0
bin	134000	0
bin	136000	0
bin	138000	0
bin	140000	0
bin	142000	0
bin	144000	0
bin	146000	0
bin	148000	0
bin	150000	0
bin	152000	0
bin	154000	0
bin	156000	0
bin	158000	0
bin	160000	0
bin	162000	0
bin	164000	0
bin	166000	0
bin	168000	0
bin	170000	0
bin	172000	1
bin	174000	0
statistic EigrpTestNetwork.R1.eth[0].mac utilization:histogram
field count 1800
field mean 0.00053697777777778
field stddev 0.0054427651903967
field min 0
field max 0.17216
field sum 0.96656
field sqrsum 0.0538120448
attr interpolationmode linear
attr recordingmode histogram
attr source "100 * utilization(count(transmissionStarted) - count(transmissionEnded))"
attr title utilization
attr unit %
bin	-inf	0
bin	0	1715
bin	0.002	0
bin	0.004	1
bin	0.006	80
bin	0.008	0
bin	0.01	0
bin	0.012	0
bin	0.014	0
bin	0.016	0
bin	0.018	0
bin	0.02	0
bin	0.022	0
bin	0.024	0
bin	0.026	0
bin	0.028	0
bin	0.03	1
bin	0.032	0
bin	0.034	0
bin	0.036	0
bin	0.038	0
bin	0.04	0
bin	0.042	0
bin	0.044	0
bin	0.046	0
bin	0.048	0
bin	0.05	0
bin	0.052	0
bin	0.054	0
bin	0.056	0
bin	0.058	0
bin	0.06	0
bin	0.062	0
bin	0.064	0
bin	0.066	0
bin	0.068	0
bin	0.07	0
bin	0.072	0
bin	0.074	0
bin	0.076	0
bin	0.078	0
bin	0.08	0
bin	0.082	0
bin	0.084	1
bin	0.086	0
bin	0.088	0
bin	0.09	0
bin	0.092	0
bin	0.094	0
bin	0.096	0
bin	0.098	0
bin	0.1	0
bin	0.102	0
bin	0.104	0
bin	0.106	0
bin	0.108	1
bin	0.11	0
bin	0.112	0
bin	0.114	0
bin	0.116	0
bin	0.118	0
bin	0.12	0
bin	0.122	0
bin	0.124	0
bin	0.126	0
bin	0.128	0
bin	0.13	0
bin	0.132	0
bin	0.134	0
bin	0.136	0
bin	0.138	0
bin	0.14	0
bin	0.142	0
bin	0.144	0
bin	0.146	0
bin	0.148	0
bin	0.15	0
bin	0.152	0
bin	0.154	0
bin	0.156	0
bin	0.158	0
bin	0.16	0
bin	0.162	0
bin	0.164	0
bin	0.166	0
bin	0.168	0
bin	0.17	0
bin	0.172	1
bin	0.174	0
scalar EigrpTestNetwork.R1.eth[0].mac txPk:count 123
attr interpolationmode none
attr recordingmode count
attr source packetSentToLower
attr title "packets transmitted, count"
scalar EigrpTestNetwork.R1.eth[0].mac txPk:sum(packetBytes) 11098
attr interpolationmode none
attr recordingmode sum(packetBytes)
attr source packetSentToLower
attr title "packets transmitted, sum(packetBytes)"
scalar EigrpTestNetwork.R1.eth[0].mac packetReceivedFromUpper:count 123
attr interpolationmode none
attr recordingmode count
attr source packetReceivedFromUpper
attr title "packet bytes from higher layer, count"
scalar EigrpTestNetwork.R1.eth[0].mac packetReceivedFromUpper:sum(packetBytes) 11002
attr interpolationmode none
attr recordingmode sum(packetBytes)
attr source packetReceivedFromUpper
attr title "packet bytes from higher layer, sum(packetBytes)"
scalar EigrpTestNetwork.R1.eth[0].mac passedUpPk:count 123
attr interpolationmode none
attr recordingmode count
attr source packetSentToUpper
attr title "packets passed to higher layer, count"
scalar EigrpTestNetwork.R1.eth[0].mac passedUpPk:sum(packetBytes) 11408
attr interpolationmode none
attr recordingmode sum(packetBytes)
attr source packetSentToUpper
attr title "packets passed to higher layer, sum(packetBytes)"
scalar EigrpTestNetwork.R1.eth[0].mac packetDropIncorrectlyReceived:count 0
attr interpolationmode none
attr recordingmode count
attr source packetDropReasonIsIncorrectlyReceived(packetDropped)
attr title "packet drop: incorrectly received, count"
scalar EigrpTestNetwork.R1.eth[0].mac packetDropIncorrectlyReceived:sum(packetBytes) 0
attr interpolationmode none
attr recordingmode sum(packetBytes)
attr source packetDropReasonIsIncorrectlyReceived(packetDropped)
attr title "packet drop: incorrectly received, sum(packetBytes)"
scalar EigrpTestNetwork.R1.eth[0].mac packetDropInterfaceDown:count 0
attr interpolationmode none
attr recordingmode count
attr source packetDropReasonIsInterfaceDown(packetDropped)
attr title "packet drop: interface down, count"
scalar EigrpTestNetwork.R1.eth[0].mac packetDropInterfaceDown:sum(packetBytes) 0
attr interpolationmode none
attr recordingmode sum(packetBytes)
attr source packetDropReasonIsInterfaceDown(packetDropped)
attr title "packet drop: interface down, sum(packetBytes)"
scalar EigrpTestNetwork.R1.eth[0].mac packetDropNotAddressedToUs:count 0
attr interpolationmode none
attr recordingmode count
attr source packetDropReasonIsNotAddressedToUs(packetDropped)
attr title "packet drop: not addressed to us, count"
scalar EigrpTestNetwork.R1.eth[0].mac packetDropNotAddressedToUs:sum(packetBytes) 0
attr interpolationmode none
attr recordingmode sum(packetBytes)
attr source packetDropReasonIsNotAddressedToUs(packetDropped)
attr title "packet drop: not addressed to us, sum(packetBytes)"
scalar EigrpTestNetwork.R1.eth[0] packetDropInterfaceDown:count 0
attr interpolationmode none
attr recordingmode count
attr source packetDropReasonIsInterfaceDown(packetDropped)
attr title "packet drops: interface down, count"
scalar EigrpTestNetwork.R1.eth[0] packetDropInterfaceDown:sum(packetBytes) 0
attr interpolationmode none
attr recordingmode sum(packetBytes)
attr source packetDropReasonIsInterfaceDown(packetDropped)
attr title "packet drops: interface down, sum(packetBytes)"
scalar EigrpTestNetwork.R1.eth[0] packetDropNoCarrier:count 0
attr interpolationmode none
attr recordingmode count
attr source packetDropReasonIsNoCarrier(packetDropped)
attr title "packet drops: no carrier, count"
scalar EigrpTestNetwork.R1.eth[0] packetDropNoCarrier:sum(packetBytes) 0
attr interpolationmode none
attr recordingmode sum(packetBytes)
attr source packetDropReasonIsNoCarrier(packetDropped)
attr title "packet drops: no carrier, sum(packetBytes)"
scalar EigrpTestNetwork.R1.eth[1].queue queueLength:last 0
attr autoWarmupFilter false
attr interpolationmode sample-hold
attr recordingmode last
attr source "warmup(atomic(constant0(packetPushEnded) + count(packetPushStarted) - count(packetPulled) - count(packetRemoved) - count(packetDropped)))"
attr title "queue length, last"
attr unit pk
scalar EigrpTestNetwork.R1.eth[1].queue queueLength:max 2
attr autoWarmupFilter false
attr interpolationmode sample-hold
attr recordingmode max
attr source "warmup(atomic(constant0(packetPushEnded) + count(packetPushStarted) - count(packetPulled) - count(packetRemoved) - count(packetDropped)))"
attr title "queue length, max"
attr unit pk
scalar EigrpTestNetwork.R1.eth[1].queue queueLength:timeavg 5.4805555555556e-07
attr autoWarmupFilter false
attr interpolationmode sample-hold
attr recordingmode timeavg
attr source "warmup(atomic(constant0(packetPushEnded) + count(packetPushStarted) - count(packetPulled) - count(packetRemoved) - count(packetDropped)))"
attr title "queue length, timeavg"
attr unit pk
scalar EigrpTestNetwork.R1.eth[1].queue queueBitLength:last 0
attr autoWarmupFilter false
attr interpolationmode sample-hold
attr recordingmode last
attr source "warmup(atomic(constant0(packetPushEnded) + sum(packetLength(packetPushStarted)) - sum(packetLength(packetPulled)) - sum(packetLength(packetRemoved)) - sum(packetLength(packetDropped))))"
attr title "queue bit length, last"
attr unit b
scalar EigrpTestNetwork.R1.eth[1].queue queueBitLength:max 3344
attr autoWarmupFilter false
attr interpolationmode sample-hold
attr recordingmode max
attr source "warmup(atomic(constant0(packetPushEnded) + sum(packetLength(packetPushStarted)) - sum(packetLength(packetPulled)) - sum(packetLength(packetRemoved)) - sum(packetLength(packetDropped))))"
attr title "queue bit length, max"
attr unit b
scalar EigrpTestNetwork.R1.eth[1].queue queueBitLength:timeavg 0.00051356711111111
attr autoWarmupFilter false
attr interpolationmode sample-hold
attr recordingmode timeavg
attr source "warmup(atomic(constant0(packetPushEnded) + sum(packetLength(packetPushStarted)) - sum(packetLength(packetPulled)) - sum(packetLength(packetRemoved)) - sum(packetLength(packetDropped))))"
attr title "queue bit length, timeavg"
attr unit b
statistic EigrpTestNetwork.R1.eth[1].queue queueingTime:histogram
field count 111
field mean 8.8873873873874e-07
field stddev 2.9545515325333e-06
field min 0
field max 1.814e-05
field sum 9.865e-05
field sqrsum 1.0479053e-09
attr interpolationmode none
attr recordingmode histogram
attr source queueingTime(packetPulled)
attr title "queueing times"
attr unit s
bin	-inf	0
bin	0	96
bin	5e-07	1
bin	1e-06	1
bin	1.5e-06	3
bin	2e-06	0
bin	2.5e-06	1
bin	3e-06	0
bin	3.5e-06	0
bin	4e-06	1
bin	4.5e-06	0
bin	5e-06	0
bin	5.5e-06	0
bin	6e-06	0
bin	6.5e-06	2
bin	7e-06	1
bin	7.5e-06	0
bin	8e-06	0
bin	8.5e-06	2
bin	9e-06	0
bin	9.5e-06	0
bin	1e-05	0
bin	1.05e-05	0
bin	1.1e-05	0
bin	1.15e-05	0
bin	1.2e-05	0
bin	1.25e-05	0
bin	1.3e-05	0
bin	1.35e-05	1
bin	1.4e-05	1
bin	1.45e-05	0
bin	1.5e-05	0
bin	1.55e-05	0
bin	1.6e-05	0
bin	1.65e-05	0
bin	1.7e-05	0
bin	1.75e-05	0
bin	1.8e-05	1
bin	1.85e-05	0
bin	1.9e-05	0
bin	1.95e-05	0
bin	2e-05	0
bin	2.05e-05	0
bin	2.1e-05	0
bin	2.15e-05	0
bin	2.2e-05	0
bin	2.25e-05	0
bin	2.3e-05	0
scalar EigrpTestNetwork.R1.eth[1].queue outgoingPackets:count 111
attr recordingmode count
attr source packetPulled
attr title "outgoing packets, count"
attr unit pk
scalar EigrpTestNetwork.R1.eth[1].queue outgoingPacketLengths:sum 80784
attr interpolationmode none
attr recordingmode sum
attr source packetLength(packetPulled)
attr title "outgoing packet lengths, sum"
attr unit b
statistic EigrpTestNetwork.R1.eth[1].queue outgoingPacketLengths:histogram
field count 111
field mean 727.78378378378
field stddev 422.24605935844
field min 368
field max 3344
field sum 80784
field sqrsum 78405376
attr interpolationmode none
attr recordingmode histogram
attr source packetLength(packetPulled)
attr title "outgoing packet lengths"
attr unit b
bin	-inf	0
bin	0	0
bin	50	0
bin	100	0
bin	150	0
bin	200	0
bin	250	0
bin	300	0
bin	350	2
bin	400	0
bin	450	7
bin	500	0
bin	550	41
bin	600	8
bin	650	0
bin	700	42
bin	750	0
bin	800	2
bin	850	0
bin	900	0
bin	950	0
bin	1000	0
bin	1050	0
bin	1100	0
bin	1150	4
bin	1200	0
bin	1250	0
bin	1300	0
bin	1350	0
bin	1400	0
bin	1450	0
bin	1500	0
bin	1550	0
bin	1600	0
bin	1650	0
bin	1700	1
bin	1750	0
bin	1800	0
bin	1850	1
bin	1900	0
bin	1950	0
bin	2000	0
bin	2050	0
bin	2100	0
bin	2150	0
bin	2200	0
bin	2250	0
bin	2300	0
bin	2350	0
bin	2400	0
bin	2450	0
bin	2500	0
bin	2550	1
bin	2600	0
bin	2650	0
bin	2700	0
bin	2750	0
bin	2800	1
bin	2850	0
bin	2900	0
bin	2950	0
bin	3000	0
bin	3050	0
bin	3100	0
bin	3150	0
bin	3200	0
bin	3250	0
bin	3300	1
bin	3350	0
bin	3400	0
bin	3450	0
bin	3500	0
bin	3550	0
bin	3600	0
bin	3650	0
bin	3700	0
bin	3750	0
bin	3800	0
bin	3850	0
bin	3900	0
bin	3950	0
bin	4000	0
bin	4050	0
bin	4100	0
statistic EigrpTestNetwork.R1.eth[1].queue flowQueueingTime:histogram
field count 0
field mean -nan
field stddev nan
field min nan
field max nan
field sum 0
field sqrsum 0
attr interpolationmode none
attr recordingmode histogram
attr source queueingTime(demuxFlow(packetPulled))
attr title "flow queueing times"
attr unit s
bin	-inf	0
bin	0	0
bin	1	0
scalar EigrpTestNetwork.R1.eth[1].queue incomingPackets:count 111
attr recordingmode count
attr source packetPushStarted
attr title "incoming packets, count"
attr unit pk
scalar EigrpTestNetwork.R1.eth[1].queue incomingPacketLengths:sum 80784
attr interpolationmode none
attr recordingmode sum
attr source packetLength(packetPushStarted)
attr title "incoming packet lengths, sum"
attr unit b
statistic EigrpTestNetwork.R1.eth[1].queue incomingPacketLengths:histogram
field count 111
field mean 727.78378378378
field stddev 422.24605935844
field min 368
field max 3344
field sum 80784
field sqrsum 78405376
attr interpolationmode none
attr recordingmode histogram
attr source packetLength(packetPushStarted)
attr title "incoming packet lengths"
attr unit b
bin	-inf	0
bin	0	0
bin	50	0
bin	100	0
bin	150	0
bin	200	0
bin	250	0
bin	300	0
bin	350	2
bin	400	0
bin	450	7
bin	500	0
bin	550	41
bin	600	8
bin	650	0
bin	700	42
bin	750	0
bin	800	2
bin	850	0
bin	900	0
bin	950	0
bin	1000	0
bin	1050	0
bin	1100	0
bin	1150	4
bin	1200	0
bin	1250	0
bin	1300	0
bin	1350	0
bin	1400	0
bin	1450	0
bin	1500	0
bin	1550	0
bin	1600	0
bin	1650	0
bin	1700	1
bin	1750	0
bin	1800	0
bin	1850	1
bin	1900	0
bin	1950	0
bin	2000	0
bin	2050	0
bin	2100	0
bin	2150	0
bin	2200	0
bin	2250	0
bin	2300	0
bin	2350	0
bin	2400	0
bin	2450	0
bin	2500	0
bin	2550	1
bin	2600	0
bin	2650	0
bin	2700	0
bin	2750	0
bin	2800	1
bin	2850	0
bin	2900	0
bin	2950	0
bin	3000	0
bin	3050	0
bin	3100	0
bin	3150	0
bin	3200	0
bin	3250	0
bin	3300	1
bin	3350	0
bin	3400	0
bin	3450	0
bin	3500	0
bin	3550	0
bin	3600	0
bin	3650	0
bin	3700	0
bin	3750	0
bin	3800	0
bin	3850	0
bin	3900	0
bin	3950	0
bin	4000	0
bin	4050	0
bin	4100	0
scalar EigrpTestNetwork.R1.eth[1].queue droppedPacketsQueueOverflow:count 0
attr interpolationmode none
attr recordingmode count
attr source packetDropReasonIsQueueOverflow(packetDropped)
attr title "dropped packets: queue overflow, count"
attr unit pk
scalar EigrpTestNetwork.R1.eth[1].queue droppedPacketLengthsQueueOverflow:sum 0
attr interpolationmode none
attr recordingmode sum
attr source packetLength(packetDropReasonIsQueueOverflow(packetDropped))
attr title "dropped packet lengths: queue overflow, sum"
attr unit b
scalar EigrpTestNetwork.R1.eth[1].mac "simulated time" 180
scalar EigrpTestNetwork.R1.eth[1].mac full-duplex 1
scalar EigrpTestNetwork.R1.eth[1].mac "frames/sec sent" 0.61666666666667
scalar EigrpTestNetwork.R1.eth[1].mac "frames/sec rcvd" 0.61666666666667
scalar EigrpTestNetwork.R1.eth[1].mac "bits/sec sent" 452.26666666667
scalar EigrpTestNetwork.R1.eth[1].mac "bits/sec rcvd" 478.22222222222
scalar EigrpTestNetwork.R1.eth[1].mac "rx channel idle (%)" 99.999482311111
scalar EigrpTestNetwork.R1.eth[1].mac "rx channel utilization (%)" 0.00051768888888889
scalar EigrpTestNetwork.R1.eth[1].mac rxPausePkUnits:count 0
attr interpolationmode none
attr recordingmode count
attr title "pause units received, count"
scalar EigrpTestNetwork.R1.eth[1].mac rxPausePkUnits:sum 0
attr interpolationmode none
attr recordingmode sum
attr title "pause units received, sum"
scalar EigrpTestNetwork.R1.eth[1].mac txPausePkUnits:count 0
attr interpolationmode none
attr recordingmode count
attr title "pause units sent, count"
scalar EigrpTestNetwork.R1.eth[1].mac txPausePkUnits:sum 0
attr interpolationmode none
attr recordingmode sum
attr title "pause units sent, sum"
scalar EigrpTestNetwork.R1.eth[1].mac rxPkOk:count 111
attr interpolationmode none
attr recordingmode count
attr source rxPkOk
attr title "packets received OK, count"
scalar EigrpTestNetwork.R1.eth[1].mac rxPkOk:sum(packetBytes) 10760
attr interpolationmode none
attr recordingmode sum(packetBytes)
attr source rxPkOk
attr title "packets received OK, sum(packetBytes)"
statistic EigrpTestNetwork.R1.eth[1].mac throughput:histogram
field count 1800
field mean 491.73333333333
field stddev 4540.7339137875
field min 0
field max 115520
field sum 885120
field sqrsum 37527500800
attr interpolationmode linear
attr recordingmode histogram
attr source throughput(transmissionEnded)
attr title throughput
attr unit bps
bin	-inf	0
bin	0	1716
bin	2000	0
bin	4000	1
bin	6000	80
bin	8000	0
bin	10000	0
bin	12000	0
bin	14000	0
bin	16000	0
bin	18000	0
bin	20000	0
bin	22000	0
bin	24000	0
bin	26000	0
bin	28000	0
bin	30000	0
bin	32000	0
bin	34000	0
bin	36000	0
bin	38000	0
bin	40000	0
bin	42000	0
bin	44000	0
bin	46000	0
bin	48000	0
bin	50000	0
bin	52000	0
bin	54000	0
bin	56000	0
bin	58000	0
bin	60000	0
bin	62000	0
bin	64000	0
bin	66000	0
bin	68000	0
bin	70000	0
bin	72000	0
bin	74000	0
bin	76000	0
bin	78000	0
bin	80000	0
bin	82000	0
bin	84000	0
bin	86000	0
bin	88000	0
bin	90000	0
bin	92000	0
bin	94000	0
bin	96000	0
bin	98000	1
bin	100000	1
bin	102000	0
bin	104000	0
bin	106000	0
bin	108000	0
bin	110000	0
bin	112000	0
bin	114000	1
bin	116000	0
bin	118000	0
bin	120000	0
bin	122000	0
bin	124000	0
bin	126000	0
bin	128000	0
statistic EigrpTestNetwork.R1.eth[1].mac utilization:histogram
field count 1800
field mean 0.00049173333333333
field stddev 0.0045407339137875
field min 0
field max 0.11552
field sum 0.88512
field sqrsum 0.0375275008
attr interpolationmode linear
attr recordingmode histogram
attr source "100 * utilization(count(transmissionStarted) - count(transmissionEnded))"
attr title utilization
attr unit %
bin	-inf	0
bin	0	1716
bin	0.002	0
bin	0.004	1
bin	0.006	80
bin	0.008	0
bin	0.01	0
bin	0.012	0
bin	0.014	0
bin	0.016	0
bin	0.018	0
bin	0.02	0
bin	0.022	0
bin	0.024	0
bin	0.026	0
bin	0.028	0
bin	0.03	0
bin	0.032	0
bin	0.034	0
bin	0.036	0
bin	0.038	0
bin	0.04	0
bin	0.042	0
bin	0.044	0
bin	0.046	0
bin	0.048	0
bin	0.05	0
bin	0.052	0
bin	0.054	0
bin	0.056	0
bin	0.058	0
bin	0.06	0
bin	0.062	0
bin	0.064	0
bin	0.066	0
bin	0.068	0
bin	0.07	0
bin	0.072	0
bin	0.074	0
bin	0.076	0
bin	0.078	0
bin	0.08	0
bin	0.082	0
bin	0.084	0
bin	0.086	0
bin	0.088	0
bin	0.09	0
bin	0.092	0
bin	0.094	0
bin	0.096	0
bin	0.098	1
bin	0.1	1
bin	0.102	0
bin	0.104	0
bin	0.106	0
bin	0.108	0
bin	0.11	0
bin	0.112	0
bin	0.114	1
bin	0.116	0
bin	0.118	0
bin	0.12	0
bin	0.122	0
bin	0.124	0
bin	0.126	0
bin	0.128	0
scalar EigrpTestNetwork.R1.eth[1].mac txPk:count 111
attr interpolationmode none
attr recordingmode count
attr source packetSentToLower
attr title "packets transmitted, count"
scalar EigrpTestNetwork.R1.eth[1].mac txPk:sum(packetBytes) 10176
attr interpolationmode none
attr recordingmode sum(packetBytes)
attr source packetSentToLower
attr title "packets transmitted, sum(packetBytes)"
scalar EigrpTestNetwork.R1.eth[1].mac packetReceivedFromUpper:count 111
attr interpolationmode none
attr recordingmode count
attr source packetReceivedFromUpper
attr title "packet bytes from higher layer, count"
scalar EigrpTestNetwork.R1.eth[1].mac packetReceivedFromUpper:sum(packetBytes) 10098
attr interpolationmode none
attr recordingmode sum(packetBytes)
attr source packetReceivedFromUpper
attr title "packet bytes from higher layer, sum(packetBytes)"
scalar EigrpTestNetwork.R1.eth[1].mac passedUpPk:count 111
attr interpolationmode none
attr recordingmode count
attr source packetSentToUpper
attr title "packets passed to higher layer, count"
scalar EigrpTestNetwork.R1.eth[1].mac passedUpPk:sum(packetBytes) 10760
attr interpolationmode none
attr recordingmode sum(packetBytes)
attr source packetSentToUpper
attr title "packets passed to higher layer, sum(packetBytes)"
scalar EigrpTestNetwork.R1.eth[1].mac packetDropIncorrectlyReceived:count 0
attr interpolationmode none
attr recordingmode count
attr source packetDropReasonIsIncorrectlyReceived(packetDropped)
attr title "packet drop: incorrectly received, count"
scalar EigrpTestNetwork.R1.eth[1].mac packetDropIncorrectlyReceived:sum(packetBytes) 0
attr interpolationmode none
attr recordingmode sum(packetBytes)
attr source packetDropReasonIsIncorrectlyReceived(packetDropped)
attr title "packet drop: incorrectly received, sum(packetBytes)"
scalar EigrpTestNetwork.R1.eth[1].mac packetDropInterfaceDown:count 0
attr interpolationmode none
attr recordingmode count
attr source packetDropReasonIsInterfaceDown(packetDropped)
attr title "packet drop: interface down, count"
scalar EigrpTestNetwork.R1.eth[1].mac packetDropInterfaceDown:sum(packetBytes) 0
attr interpolationmode none
attr recordingmode sum(packetBytes)
attr source packetDropReasonIsInterfaceDown(packetDropped)
attr title "packet drop: interface down, sum(packetBytes)"
scalar EigrpTestNetwork.R1.eth[1].mac packetDropNotAddressedToUs:count 0
attr interpolationmode none
attr recordingmode count
attr source packetDropReasonIsNotAddressedToUs(packetDropped)
attr title "packet drop: not addressed to us, count"
scalar EigrpTestNetwork.R1.eth[1].mac packetDropNotAddressedToUs:sum(packetBytes) 0
attr interpolationmode none
attr recordingmode sum(packetBytes)
attr source packetDropReasonIsNotAddressedToUs(packetDropped)
attr title "packet drop: not addressed to us, sum(packetBytes)"
scalar EigrpTestNetwork.R1.eth[1] packetDropInterfaceDown:count 0
attr interpolationmode none
attr recordingmode count
attr source packetDropReasonIsInterfaceDown(packetDropped)
attr title "packet drops: interface down, count"
scalar EigrpTestNetwork.R1.eth[1] packetDropInterfaceDown:sum(packetBytes) 0
attr interpolationmode none
attr recordingmode sum(packetBytes)
attr source packetDropReasonIsInterfaceDown(packetDropped)
attr title "packet drops: interface down, sum(packetBytes)"
scalar EigrpTestNetwork.R1.eth[1] packetDropNoCarrier:count 0
attr interpolationmode none
attr recordingmode count
attr source packetDropReasonIsNoCarrier(packetDropped)
attr title "packet drops: no carrier, count"
scalar EigrpTestNetwork.R1.eth[1] packetDropNoCarrier:sum(packetBytes) 0
attr interpolationmode none
attr recordingmode sum(packetBytes)
attr source packetDropReasonIsNoCarrier(packetDropped)
attr title "packet drops: no carrier, sum(packetBytes)"
scalar EigrpTestNetwork.R1.eth[2].queue queueLength:last 0
attr autoWarmupFilter false
attr interpolationmode sample-hold
attr recordingmode last
attr source "warmup(atomic(constant0(packetPushEnded) + count(packetPushStarted) - count(packetPulled) - count(packetRemoved) - count(packetDropped)))"
attr title "queue length, last"
attr unit pk
scalar EigrpTestNetwork.R1.eth[2].queue queueLength:max 0
attr autoWarmupFilter false
attr interpolationmode sample-hold
attr recordingmode max
attr source "warmup(atomic(constant0(packetPushEnded) + count(packetPushStarted) - count(packetPulled) - count(packetRemoved) - count(packetDropped)))"
attr title "queue length, max"
attr unit pk
scalar EigrpTestNetwork.R1.eth[2].queue queueLength:timeavg 0
attr autoWarmupFilter false
attr interpolationmode sample-hold
attr recordingmode timeavg
attr source "warmup(atomic(constant0(packetPushEnded) + count(packetPushStarted) - count(packetPulled) - count(packetRemoved) - count(packetDropped)))"
attr title "queue length, timeavg"
attr unit pk
scalar EigrpTestNetwork.R1.eth[2].queue queueBitLength:last 0
attr autoWarmupFilter false
attr interpolationmode sample-hold
attr recordingmode last
attr source "warmup(atomic(constant0(packetPushEnded) + sum(packetLength(packetPushStarted)) - sum(packetLength(packetPulled)) - sum(packetLength(packetRemoved)) - sum(packetLength(packetDropped))))"
attr title "queue bit length, last"
attr unit b
scalar EigrpTestNetwork.R1.eth[2].queue queueBitLength:max 0
attr autoWarmupFilter false
attr interpolationmode sample-hold
attr recordingmode max
attr source "warmup(atomic(constant0(packetPushEnded) + sum(packetLength(packetPushStarted)) - sum(packetLength(packetPulled)) - sum(packetLength(packetRemoved)) - sum(packetLength(packetDropped))))"
attr title "queue bit length, max"
attr unit b
scalar EigrpTestNetwork.R1.eth[2].queue queueBitLength:timeavg 0
attr autoWarmupFilter false
attr interpolationmode sample-hold
attr recordingmode timeavg
attr source "warmup(atomic(constant0(packetPushEnded) + sum(packetLength(packetPushStarted)) - sum(packetLength(packetPulled)) - sum(packetLength(packetRemoved)) - sum(packetLength(packetDropped))))"
attr title "queue bit length, timeavg"
attr unit b
statistic EigrpTestNetwork.R1.eth[2].queue queueingTime:histogram
field count 0
field mean -nan
field stddev nan
field min nan
field max nan
field sum 0
field sqrsum 0
attr interpolationmode none
attr recordingmode histogram
attr source queueingTime(packetPulled)
attr title "queueing times"
attr unit s
bin	-inf	0
bin	0	0
bin	1	0
scalar EigrpTestNetwork.R1.eth[2].queue outgoingPackets:count 0
attr recordingmode count
attr source packetPulled
attr title "outgoing packets, count"
attr unit pk
scalar EigrpTestNetwork.R1.eth[2].queue outgoingPacketLengths:sum 0
attr interpolationmode none
attr recordingmode sum
attr source packetLength(packetPulled)
attr title "outgoing packet lengths, sum"
attr unit b
statistic EigrpTestNetwork.R1.eth[2].queue outgoingPacketLengths:histogram
field count 0
field mean -nan
field stddev nan
field min nan
field max nan
field sum 0
field sqrsum 0
attr interpolationmode none
attr recordingmode histogram
attr source packetLength(packetPulled)
attr title "outgoing packet lengths"
attr unit b
bin	-inf	0
bin	0	0
bin	1	0
statistic EigrpTestNetwork.R1.eth[2].queue flowQueueingTime:histogram
field count 0
field mean -nan
field stddev nan
field min nan
field max nan
field sum 0
field sqrsum 0
attr interpolationmode none
attr recordingmode histogram
attr source queueingTime(demuxFlow(packetPulled))
attr title "flow queueing times"
attr unit s
bin	-inf	0
bin	0	0
bin	1	0
scalar EigrpTestNetwork.R1.eth[2].queue incomingPackets:count 0
attr recordingmode count
attr source packetPushStarted
attr title "incoming packets, count"
attr unit pk
scalar EigrpTestNetwork.R1.eth[2].queue incomingPacketLengths:sum 0
attr interpolationmode none
attr recordingmode sum
attr source packetLength(packetPushStarted)
attr title "incoming packet lengths, sum"
attr unit b
statistic EigrpTestNetwork.R1.eth[2].queue incomingPacketLengths:histogram
field count 0
field mean -nan
field stddev nan
field min nan
field max nan
field sum 0
field sqrsum 0
attr interpolationmode none
attr recordingmode histogram
attr source packetLength(packetPushStarted)
attr title "incoming packet lengths"
attr unit b
bin	-inf	0
bin	0	0
bin	1	0
scalar EigrpTestNetwork.R1.eth[2].queue droppedPacketsQueueOverflow:count 0
attr interpolationmode none
attr recordingmode count
attr source packetDropReasonIsQueueOverflow(packetDropped)
attr title "dropped packets: queue overflow, count"
attr unit pk
scalar EigrpTestNetwork.R1.eth[2].queue droppedPacketLengthsQueueOverflow:sum 0
attr interpolationmode none
attr recordingmode sum
attr source packetLength(packetDropReasonIsQueueOverflow(packetDropped))
attr title "dropped packet lengths: queue overflow, sum"
attr unit b
scalar EigrpTestNetwork.R1.eth[2].mac "simulated time" 180
scalar EigrpTestNetwork.R1.eth[2].mac full-duplex 1
scalar EigrpTestNetwork.R1.eth[2].mac "frames/sec sent" 0
scalar EigrpTestNetwork.R1.eth[2].mac "frames/sec rcvd" 0
scalar EigrpTestNetwork.R1.eth[2].mac "bits/sec sent" 0
scalar EigrpTestNetwork.R1.eth[2].mac "bits/sec rcvd" 0
scalar EigrpTestNetwork.R1.eth[2].mac "rx channel idle (%)" 100
scalar EigrpTestNetwork.R1.eth[2].mac "rx channel utilization (%)" 0
scalar EigrpTestNetwork.R1.eth[2].mac rxPausePkUnits:count 0
attr interpolationmode none
attr recordingmode count
attr title "pause units received, count"
scalar EigrpTestNetwork.R1.eth[2].mac rxPausePkUnits:sum 0
attr interpolationmode none
attr recordingmode sum
attr title "pause units received, sum"
scalar EigrpTestNetwork.R1.eth[2].mac txPausePkUnits:count 0
attr interpolationmode none
attr recordingmode count
attr title "pause units sent, count"
scalar EigrpTestNetwork.R1.eth[2].mac txPausePkUnits:sum 0
attr interpolationmode none
attr recordingmode sum
attr title "pause units sent, sum"
scalar EigrpTestNetwork.R1.eth[2].mac rxPkOk:count 0
attr interpolationmode none
attr recordingmode count
attr source rxPkOk
attr title "packets received OK, count"
scalar EigrpTestNetwork.R1.eth[2].mac rxPkOk:sum(packetBytes) 0
attr interpolationmode none
attr recordingmode sum(packetBytes)
attr source rxPkOk
attr title "packets received OK, sum(packetBytes)"
statistic EigrpTestNetwork.R1.eth[2].mac throughput:histogram
field count 1800
field mean 0
field stddev 0
field min 0
field max 0
field sum 0
field sqrsum 0
attr interpolationmode linear
attr recordingmode histogram
attr source throughput(transmissionEnded)
attr title throughput
attr unit bps
bin	-inf	0
bin	-0.5	0
bin	-0.48	0
bin	-0.46	0
bin	-0.44	0
bin	-0.42	0
bin	-0.4	0
bin	-0.38	0
bin	-0.36	0
bin	-0.34	0
bin	-0.32	0
bin	-0.3	0
bin	-0.28	0
bin	-0.26	0
bin	-0.24	0
bin	-0.22	0
bin	-0.2	0
bin	-0.18	0
bin	-0.16	0
bin	-0.14	0
bin	-0.12	0
bin	-0.1	0
bin	-0.08	0
bin	-0.06	0
bin	-0.04	0
bin	-0.02	0
bin	0	1800
bin	0.02	0
bin	0.04	0
bin	0.06	0
bin	0.08	0
bin	0.1	0
bin	0.12	0
bin	0.14	0
bin	0.16	0
bin	0.18	0
bin	0.2	0
bin	0.22	0
bin	0.24	0
bin	0.26	0
bin	0.28	0
bin	0.3	0
bin	0.32	0
bin	0.34	0
bin	0.36	0
bin	0.38	0
bin	0.4	0
bin	0.42	0
bin	0.44	0
bin	0.46	0
bin	0.48	0
bin	0.5	0
statistic EigrpTestNetwork.R1.eth[2].mac utilization:histogram
field count 1800
field mean 0
field stddev 0
field min 0
field max 0
field sum 0
field sqrsum 0
attr interpolationmode linear
attr recordingmode histogram
attr source "100 * utilization(count(transmissionStarted) - count(transmissionEnded))"
attr title utilization
attr unit %
bin	-inf	0
bin	-0.5	0
bin	-0.48	0
bin	-0.46	0
bin	-0.44	0
bin	-0.42	0
bin	-0.4	0
bin	-0.38	0
bin	-0.36	0
bin	-0.34	0
bin	-0.32	0
bin	-0.3	0
bin	-0.28	0
bin	-0.26	0
bin	-0.24	0
bin	-0.22	0
bin	-0.2	0
bin	-0.18	0
bin	-0.16	0
bin	-0.14	0
bin	-0.12	0
bin	-0.1	0
bin	-0.08	0
bin	-0.06	0
bin	-0.04	0
bin	-0.02	0
bin	0	1800
bin	0.02	0
bin	0.04	0
bin	0.06	0
bin	0.08	0
bin	0.1	0
bin	0.12	0
bin	0.14	0
bin	0.16	0
bin	0.18	0
bin	0.2	0
bin	0.22	0
bin	0.24	0
bin	0.26	0
bin	0.28	0
bin	0.3	0
bin	0.32	0
bin	0.34	0
bin	0.36	0
bin	0.38	0
bin	0.4	0
bin	0.42	0
bin	0.44	0
bin	0.46	0
bin	0.48	0
bin	0.5	0
scalar EigrpTestNetwork.R1.eth[2].mac txPk:count 0
attr interpolationmode none
attr recordingmode count
attr source packetSentToLower
attr title "packets transmitted, count"
scalar EigrpTestNetwork.R1.eth[2].mac txPk:sum(packetBytes) 0
attr interpolationmode none
attr recordingmode sum(packetBytes)
attr source packetSentToLower
attr title "packets transmitted, sum(packetBytes)"
scalar EigrpTestNetwork.R1.eth[2].mac packetReceivedFromUpper:count 0
attr interpolationmode none
attr recordingmode count
attr source packetReceivedFromUpper
attr title "packet bytes from higher layer, count"
scalar EigrpTestNetwork.R1.eth[2].mac packetReceivedFromUpper:sum(packetBytes) 0
attr interpolationmode none
attr recordingmode sum(packetBytes)
attr source packetReceivedFromUpper
attr title "packet bytes from higher layer, sum(packetBytes)"
scalar EigrpTestNetwork.R1.eth[2].mac passedUpPk:count 0
attr interpolationmode none
attr recordingmode count
attr source packetSentToUpper
attr title "packets passed to higher layer, count"
scalar EigrpTestNetwork.R1.eth[2].mac passedUpPk:sum(packetBytes) 0
attr interpolationmode none
attr recordingmode sum(packetBytes)
attr source packetSentToUpper
attr title "packets passed to higher layer, sum(packetBytes)"
scalar EigrpTestNetwork.R1.eth[2].mac packetDropIncorrectlyReceived:count 0
attr interpolationmode none
attr recordingmode count
attr source packetDropReasonIsIncorrectlyReceived(packetDropped)
attr title "packet drop: incorrectly received, count"
scalar EigrpTestNetwork.R1.eth[2].mac packetDropIncorrectlyReceived:sum(packetBytes) 0
attr interpolationmode none
attr recordingmode sum(packetBytes)
attr source packetDropReasonIsIncorrectlyReceived(packetDropped)
attr title "packet drop: incorrectly received, sum(packetBytes)"
scalar EigrpTestNetwork.R1.eth[2].mac packetDropInterfaceDown:count 0
attr interpolationmode none
attr recordingmode count
attr source packetDropReasonIsInterfaceDown(packetDropped)
attr title "packet drop: interface down, count"
scalar EigrpTestNetwork.R1.eth[2].mac packetDropInterfaceDown:sum(packetBytes) 0
attr interpolationmode none
attr recordingmode sum(packetBytes)
attr source packetDropReasonIsInterfaceDown(packetDropped)
attr title "packet drop: interface down, sum(packetBytes)"
scalar EigrpTestNetwork.R1.eth[2].mac packetDropNotAddressedToUs:count 0
attr interpolationmode none
attr recordingmode count
attr source packetDropReasonIsNotAddressedToUs(packetDropped)
attr title "packet drop: not addressed to us, count"
scalar EigrpTestNetwork.R1.eth[2].mac packetDropNotAddressedToUs:sum(packetBytes) 0
attr interpolationmode none
attr recordingmode sum(packetBytes)
attr source packetDropReasonIsNotAddressedToUs(packetDropped)
attr title "packet drop: not addressed to us, sum(packetBytes)"
scalar EigrpTestNetwork.R1.eth[2] packetDropInterfaceDown:count 0
attr interpolationmode none
attr recordingmode count
attr source packetDropReasonIsInterfaceDown(packetDropped)
attr title "packet drops: interface down, count"
scalar EigrpTestNetwork.R1.eth[2] packetDropInterfaceDown:sum(packetBytes) 0
attr interpolationmode none
attr recordingmode sum(packetBytes)
attr source packetDropReasonIsInterfaceDown(packetDropped)
attr title "packet drops: interface down, sum(packetBytes)"
scalar EigrpTestNetwork.R1.eth[2] packetDropNoCarrier:count 0
attr interpolationmode none
attr recordingmode count
attr source packetDropReasonIsNoCarrier(packetDropped)
attr title "packet drops: no carrier, count"
scalar EigrpTestNetwork.R1.eth[2] packetDropNoCarrier:sum(packetBytes) 0
attr interpolationmode none
attr recordingmode sum(packetBytes)
attr source packetDropReasonIsNoCarrier(packetDropped)
attr title "packet drops: no carrier, sum(packetBytes)"
scalar EigrpTestNetwork.R1.ipv4.ip packetDropAddressResolutionFailed:count 0
attr interpolationmode none
attr recordingmode count
attr source packetDropReasonIsAddressResolutionFailed(packetDropped)
attr title "packet drop: address resolution failed, count"
scalar EigrpTestNetwork.R1.ipv4.ip packetDropAddressResolutionFailed:sum(packetBytes) 0
attr interpolationmode none
attr recordingmode sum(packetBytes)
attr source packetDropReasonIsAddressResolutionFailed(packetDropped)
attr title "packet drop: address resolution failed, sum(packetBytes)"
scalar EigrpTestNetwork.R1.ipv4.ip packetDropHopLimitReached:count 0
attr interpolationmode none
attr recordingmode count
attr source packetDropReasonIsHopLimitReached(packetDropped)
attr title "packet drop: hop limit reached, count"
scalar EigrpTestNetwork.R1.ipv4.ip packetDropHopLimitReached:sum(packetBytes) 0
attr interpolationmode none
attr recordingmode sum(packetBytes)
attr source packetDropReasonIsHopLimitReached(packetDropped)
attr title "packet drop: hop limit reached, sum(packetBytes)"
scalar EigrpTestNetwork.R1.ipv4.ip packetDropForwardingDisabled:count 0
attr interpolationmode none
attr recordingmode count
attr source packetDropReasonIsForwardingDisabled(packetDropped)
attr title "packet drop: forwarding disabled, count"
scalar EigrpTestNetwork.R1.ipv4.ip packetDropForwardingDisabled:sum(packetBytes) 0
attr interpolationmode none
attr recordingmode sum(packetBytes)
attr source packetDropReasonIsForwardingDisabled(packetDropped)
attr title "packet drop: forwarding disabled, sum(packetBytes)"
scalar EigrpTestNetwork.R1.ipv4.ip packetDropLifetimeExpired:count 0
attr interpolationmode none
attr recordingmode count
attr source packetDropReasonIsLifetimeExpired(packetDropped)
attr title "packet drop: lifetime expired, count"
scalar EigrpTestNetwork.R1.ipv4.ip packetDropLifetimeExpired:sum(packetBytes) 0
attr interpolationmode none
attr recordingmode sum(packetBytes)
attr source packetDropReasonIsLifetimeExpired(packetDropped)
attr title "packet drop: lifetime expired, sum(packetBytes)"
scalar EigrpTestNetwork.R1.ipv4.ip packetDropNoInterfaceFound:count 0
attr interpolationmode none
attr recordingmode count
attr source packetDropReasonIsNoInterfaceFound(packetDropped)
attr title "packet drop: no interface found, count"
scalar EigrpTestNetwork.R1.ipv4.ip packetDropNoInterfaceFound:sum(packetBytes) 0
attr interpolationmode none
attr recordingmode sum(packetBytes)
attr source packetDropReasonIsNoInterfaceFound(packetDropped)
attr title "packet drop: no interface found, sum(packetBytes)"
scalar EigrpTestNetwork.R1.ipv4.ip packetDropNoRouteFound:count 0
attr interpolationmode none
attr recordingmode count
attr source packetDropReasonIsNoRouteFound(packetDropped)
attr title "packet drop: no route found, count"
scalar EigrpTestNetwork.R1.ipv4.ip packetDropNoRouteFound:sum(packetBytes) 0
attr interpolationmode none
attr recordingmode sum(packetBytes)
attr source packetDropReasonIsNoRouteFound(packetDropped)
attr title "packet drop: no route found, sum(packetBytes)"
scalar EigrpTestNetwork.R1.ipv4.ip packetDropUndefined:count 0
attr interpolationmode none
attr recordingmode count
attr source packetDropReasonIsUndefined(packetDropped)
attr title "packet drop: undefined, count"
scalar EigrpTestNetwork.R1.ipv4.ip packetDropUndefined:sum(packetBytes) 0
attr interpolationmode none
attr recordingmode sum(packetBytes)
attr source packetDropReasonIsUndefined(packetDropped)
attr title "packet drop: undefined, sum(packetBytes)"
scalar EigrpTestNetwork.R1.ipv4.arp arpResolutionFailed:count 0
attr recordingmode count
attr title "ARP failed resolutions, count"
scalar EigrpTestNetwork.R1.ipv4.arp arpResolutionCompleted:count 4
attr recordingmode count
attr title "ARP completed resolutions, count"
scalar EigrpTestNetwork.R1.ipv4.arp arpResolutionInitiated:count 2
attr recordingmode count
attr title "ARP initiated resolutions, count"
scalar EigrpTestNetwork.R1.ipv4.arp arpReplySent:count 2
attr recordingmode count
attr source arpReplySent
attr title "ARP replies sent, count"
scalar EigrpTestNetwork.R1.ipv4.arp arpReplySent:sum(packetBytes) 56
attr recordingmode sum(packetBytes)
attr source arpReplySent
attr title "ARP replies sent, sum(packetBytes)"
scalar EigrpTestNetwork.R1.ipv4.arp arpRequestSent:count 2
attr recordingmode count
attr source arpRequestSent
attr title "ARP request sent, count"
scalar EigrpTestNetwork.R1.ipv4.arp arpRequestSent:sum(packetBytes) 56
attr recordingmode sum(packetBytes)
attr source arpRequestSent
attr title "ARP request sent, sum(packetBytes)"
scalar EigrpTestNetwork.R1.ipv6.neighbourDiscovery startDad:count 0
attr recordingmode count
attr title "DAD started, count"
scalar EigrpTestNetwork.R2.ethernet pauseSent:count 0
attr recordingmode count
attr title "pause sent, count"
scalar EigrpTestNetwork.R2.ethernet pauseSent:sum 0
attr recordingmode sum
attr title "pause sent, sum"
scalar EigrpTestNetwork.R2.ethernet decapPk:count 261
attr interpolationmode none
attr recordingmode count
attr source decapPk
attr title "packets decapsulated, count"
scalar EigrpTestNetwork.R2.ethernet decapPk:sum(packetBytes) 19642
attr interpolationmode none
attr recordingmode sum(packetBytes)
attr source decapPk
attr title "packets decapsulated, sum(packetBytes)"
scalar EigrpTestNetwork.R2.ethernet encapPk:count 263
attr interpolationmode none
attr recordingmode count
attr source encapPk
attr title "packets encapsulated, count"
scalar EigrpTestNetwork.R2.ethernet encapPk:sum(packetBytes) 19776
attr interpolationmode none
attr recordingmode sum(packetBytes)
attr source encapPk
attr title "packets encapsulated, sum(packetBytes)"
scalar EigrpTestNetwork.R2.lo[0].lo rcvdPkFromHl:count 0
attr interpolationmode none
attr recordingmode count
attr source packetReceivedFromUpper
attr title "packets received from higher layer, count"
scalar EigrpTestNetwork.R2.lo[0].lo rcvdPkFromHl:sum(packetBytes) 0
attr interpolationmode none
attr recordingmode sum(packetBytes)
attr source packetReceivedFromUpper
attr title "packets received from higher layer, sum(packetBytes)"
scalar EigrpTestNetwork.R2.lo[0].lo passedUpPk:count 0
attr interpolationmode none
attr recordingmode count
attr source packetSentToUpper
attr title "packets passed to higher layer, count"
scalar EigrpTestNetwork.R2.lo[0].lo passedUpPk:sum(packetBytes) 0
attr interpolationmode none
attr recordingmode sum(packetBytes)
attr source packetSentToUpper
attr title "packets passed to higher layer, sum(packetBytes)"
scalar EigrpTestNetwork.R2.lo[0] packetDropInterfaceDown:count 0
attr interpolationmode none
attr recordingmode count
attr source packetDropReasonIsInterfaceDown(packetDropped)
attr title "packet drops: interface down, count"
scalar EigrpTestNetwork.R2.lo[0] packetDropInterfaceDown:sum(packetBytes) 0
attr interpolationmode none
attr recordingmode sum(packetBytes)
attr source packetDropReasonIsInterfaceDown(packetDropped)
attr title "packet drops: interface down, sum(packetBytes)"
scalar EigrpTestNetwork.R2.lo[0] packetDropNoCarrier:count 0
attr interpolationmode none
attr recordingmode count
attr source packetDropReasonIsNoCarrier(packetDropped)
attr title "packet drops: no carrier, count"
scalar EigrpTestNetwork.R2.lo[0] packetDropNoCarrier:sum(packetBytes) 0
attr interpolationmode none
attr recordingmode sum(packetBytes)
attr source packetDropReasonIsNoCarrier(packetDropped)
attr title "packet drops: no carrier, sum(packetBytes)"
scalar EigrpTestNetwork.R2.eth[0].queue queueLength:last 0
attr autoWarmupFilter false
attr interpolationmode sample-hold
attr recordingmode last
attr source "warmup(atomic(constant0(packetPushEnded) + count(packetPushStarted) - count(packetPulled) - count(packetRemoved) - count(packetDropped)))"
attr title "queue length, last"
attr unit pk
scalar EigrpTestNetwork.R2.eth[0].queue queueLength:max 3
attr autoWarmupFilter false
attr interpolationmode sample-hold
attr recordingmode max
attr source "warmup(atomic(constant0(packetPushEnded) + count(packetPushStarted) - count(packetPulled) - count(packetRemoved) - count(packetDropped)))"
attr title "queue length, max"
attr unit pk
scalar EigrpTestNetwork.R2.eth[0].queue queueLength:timeavg 1.3677777777778e-06
attr autoWarmupFilter false
attr interpolationmode sample-hold
attr recordingmode timeavg
attr source "warmup(atomic(constant0(packetPushEnded) + count(packetPushStarted) - count(packetPulled) - count(packetRemoved) - count(packetDropped)))"
attr title "queue length, timeavg"
attr unit pk
scalar EigrpTestNetwork.R2.eth[0].queue queueBitLength:last 0
attr autoWarmupFilter false
attr interpolationmode sample-hold
attr recordingmode last
attr source "warmup(atomic(constant0(packetPushEnded) + sum(packetLength(packetPushStarted)) - sum(packetLength(packetPulled)) - sum(packetLength(packetRemoved)) - sum(packetLength(packetDropped))))"
attr title "queue bit length, last"
attr unit b
scalar EigrpTestNetwork.R2.eth[0].queue queueBitLength:max 2608
attr autoWarmupFilter false
attr interpolationmode sample-hold
attr recordingmode max
attr source "warmup(atomic(constant0(packetPushEnded) + sum(packetLength(packetPushStarted)) - sum(packetLength(packetPulled)) - sum(packetLength(packetRemoved)) - sum(packetLength(packetDropped))))"
attr title "queue bit length, max"
attr unit b
scalar EigrpTestNetwork.R2.eth[0].queue queueBitLength:timeavg 0.0012161066666667
attr autoWarmupFilter false
attr interpolationmode sample-hold
attr recordingmode timeavg
attr source "warmup(atomic(constant0(packetPushEnded) + sum(packetLength(packetPushStarted)) - sum(packetLength(packetPulled)) - sum(packetLength(packetRemoved)) - sum(packetLength(packetDropped))))"
attr title "queue bit length, timeavg"
attr unit b
statistic EigrpTestNetwork.R2.eth[0].queue queueingTime:histogram
field count 123
field mean 2.0016260162602e-06
field stddev 4.9226173189499e-06
field min 0
field max 2.224e-05
field sum 0.0002462
field sqrsum 3.449124e-09
attr interpolationmode none
attr recordingmode histogram
attr source queueingTime(packetPulled)
attr title "queueing times"
attr unit s
bin	-inf	0
bin	0	98
bin	5e-07	0
bin	1e-06	0
bin	1.5e-06	3
bin	2e-06	1
bin	2.5e-06	0
bin	3e-06	0
bin	3.5e-06	1
bin	4e-06	0
bin	4.5e-06	0
bin	5e-06	1
bin	5.5e-06	0
bin	6e-06	0
bin	6.5e-06	2
bin	7e-06	2
bin	7.5e-06	3
bin	8e-06	0
bin	8.5e-06	4
bin	9e-06	1
bin	9.5e-06	0
bin	1e-05	0
bin	1.05e-05	0
bin	1.1e-05	0
bin	1.15e-05	0
bin	1.2e-05	0
bin	1.25e-05	0
bin	1.3e-05	0
bin	1.35e-05	1
bin	1.4e-05	0
bin	1.45e-05	0
bin	1.5e-05	0
bin	1.55e-05	0
bin	1.6e-05	0
bin	1.65e-05	1
bin	1.7e-05	0
bin	1.75e-05	0
bin	1.8e-05	1
bin	1.85e-05	1
bin	1.9e-05	0
bin	1.95e-05	0
bin	2e-05	0
bin	2.05e-05	0
bin	2.1e-05	0
bin	2.15e-05	1
bin	2.2e-05	2
bin	2.25e-05	0
bin	2.3e-05	0
bin	2.35e-05	0
bin	2.4e-05	0
bin	2.45e-05	0
bin	2.5e-05	0
bin	2.55e-05	0
bin	2.6e-05	0
bin	2.65e-05	0
bin	2.7e-05	0
bin	2.75e-05	0
bin	2.8e-05	0
scalar EigrpTestNetwork.R2.eth[0].queue outgoingPackets:count 123
attr recordingmode count
attr source packetPulled
attr title "outgoing packets, count"
attr unit pk
scalar EigrpTestNetwork.R2.eth[0].queue outgoingPacketLengths:sum 90544
attr interpolationmode none
attr recordingmode sum
attr source packetLength(packetPulled)
attr title "outgoing packet lengths, sum"
attr unit b
statistic EigrpTestNetwork.R2.eth[0].queue outgoingPacketLengths:histogram
field count 123
field mean 736.13008130081
field stddev 351.43618592317
field min 368
field max 2256
field sum 90544
field sqrsum 81720064
attr interpolationmode none
attr recordingmode histogram
attr source packetLength(packetPulled)
attr title "outgoing packet lengths"
attr unit b
bin	-inf	0
bin	0	0
bin	50	0
bin	100	0
bin	150	0
bin	200	0
bin	250	0
bin	300	0
bin	350	2
bin	400	0
bin	450	9
bin	500	0
bin	550	42
bin	600	11
bin	650	0
bin	700	41
bin	750	0
bin	800	3
bin	850	0
bin	900	0
bin	950	0
bin	1000	0
bin	1050	0
bin	1100	0
bin	1150	7
bin	1200	0
bin	1250	0
bin	1300	0
bin	1350	0
bin	1400	0
bin	1450	0
bin	1500	2
bin	1550	0
bin	1600	0
bin	1650	0
bin	1700	2
bin	1750	0
bin	1800	0
bin	1850	1
bin	1900	0
bin	1950	0
bin	2000	0
bin	2050	0
bin	2100	0
bin	2150	0
bin	2200	0
bin	2250	3
bin	2300	0
bin	2350	0
bin	2400	0
bin	2450	0
bin	2500	0
bin	2550	0
bin	2600	0
bin	2650	0
bin	2700	0
bin	2750	0
statistic EigrpTestNetwork.R2.eth[0].queue flowQueueingTime:histogram
field count 0
field mean -nan
field stddev nan
field min nan
field max nan
field sum 0
field sqrsum 0
attr interpolationmode none
attr recordingmode histogram
attr source queueingTime(demuxFlow(packetPulled))
attr title "flow queueing times"
attr unit s
bin	-inf	0
bin	0	0
bin	1	0
scalar EigrpTestNetwork.R2.eth[0].queue incomingPackets:count 123
attr recordingmode count
attr source packetPushStarted
attr title "incoming packets, count"
attr unit pk
scalar EigrpTestNetwork.R2.eth[0].queue incomingPacketLengths:sum 90544
attr interpolationmode none
attr recordingmode sum
attr source packetLength(packetPushStarted)
attr title "incoming packet lengths, sum"
attr unit b
statistic EigrpTestNetwork.R2.eth[0].queue incomingPacketLengths:histogram
field count 123
field mean 736.13008130081
field stddev 351.43618592317
field min 368
field max 2256
field sum 90544
field sqrsum 81720064
attr interpolationmode none
attr recordingmode histogram
attr source packetLength(packetPushStarted)
attr title "incoming packet lengths"
attr unit b
bin	-inf	0
bin	0	0
bin	50	0
bin	100	0
bin	150	0
bin	200	0
bin	250	0
bin	300	0
bin	350	2
bin	400	0
bin	450	9
bin	500	0
bin	550	42
bin	600	11
bin	650	0
bin	700	41
bin	750	0
bin	800	3
bin	850	0
bin	900	0
bin	950	0
bin	1000	0
bin	1050	0
bin	1100	0
bin	1150	7
bin	1200	0
bin	1250	0
bin	1300	0
bin	1350	0
bin	1400	0
bin	1450	0
bin	1500	2
bin	1550	0
bin	1600	0
bin	1650	0
bin	1700	2
bin	1750	0
bin	1800	0
bin	1850	1
bin	1900	0
bin	1950	0
bin	2000	0
bin	2050	0
bin	2100	0
bin	2150	0
bin	2200	0
bin	2250	3
bin	2300	0
bin	2350	0
bin	2400	0
bin	2450	0
bin	2500	0
bin	2550	0
bin	2600	0
bin	2650	0
bin	2700	0
bin	2750	0
scalar EigrpTestNetwork.R2.eth[0].queue droppedPacketsQueueOverflow:count 0
attr interpolationmode none
attr recordingmode count
attr source packetDropReasonIsQueueOverflow(packetDropped)
attr title "dropped packets: queue overflow, count"
attr unit pk
scalar EigrpTestNetwork.R2.eth[0].queue droppedPacketLengthsQueueOverflow:sum 0
attr interpolationmode none
attr recordingmode sum
attr source packetLength(packetDropReasonIsQueueOverflow(packetDropped))
attr title "dropped packet lengths: queue overflow, sum"
attr unit b
scalar EigrpTestNetwork.R2.eth[0].mac "simulated time" 180
scalar EigrpTestNetwork.R2.eth[0].mac full-duplex 1
scalar EigrpTestNetwork.R2.eth[0].mac "frames/sec sent" 0.68333333333333
scalar EigrpTestNetwork.R2.eth[0].mac "frames/sec rcvd" 0.68333333333333
scalar EigrpTestNetwork.R2.eth[0].mac "bits/sec sent" 507.02222222222
scalar EigrpTestNetwork.R2.eth[0].mac "bits/sec rcvd" 493.24444444444
scalar EigrpTestNetwork.R2.eth[0].mac "rx channel idle (%)" 99.999463022222
scalar EigrpTestNetwork.R2.eth[0].mac "rx channel utilization (%)" 0.00053697777777778
scalar EigrpTestNetwork.R2.eth[0].mac rxPausePkUnits:count 0
attr interpolationmode none
attr recordingmode count
attr title "pause units received, count"
scalar EigrpTestNetwork.R2.eth[0].mac rxPausePkUnits:sum 0
attr interpolationmode none
attr recordingmode sum
attr title "pause units received, sum"
scalar EigrpTestNetwork.R2.eth[0].mac txPausePkUnits:count 0
attr interpolationmode none
attr recordingmode count
attr title "pause units sent, count"
scalar EigrpTestNetwork.R2.eth[0].mac txPausePkUnits:sum 0
attr interpolationmode none
attr recordingmode sum
attr title "pause units sent, sum"
scalar EigrpTestNetwork.R2.eth[0].mac rxPkOk:count 123
attr interpolationmode none
attr recordingmode count
attr source rxPkOk
attr title "packets received OK, count"
scalar EigrpTestNetwork.R2.eth[0].mac rxPkOk:sum(packetBytes) 11098
attr interpolationmode none
attr recordingmode sum(packetBytes)
attr source rxPkOk
attr title "packets received OK, sum(packetBytes)"
statistic EigrpTestNetwork.R2.eth[0].mac throughput:histogram
field count 1800
field mean 550.75555555556
field stddev 5755.576080273
field min 0
field max 190080
field sum 991360
field sqrsum 60140851200
attr interpolationmode linear
attr recordingmode histogram
attr source throughput(transmissionEnded)
attr title throughput
attr unit bps
bin	-inf	0
bin	0	1715
bin	4000	80
bin	8000	0
bin	12000	1
bin	16000	0
bin	20000	0
bin	24000	0
bin	28000	0
bin	32000	0
bin	36000	1
bin	40000	0
bin	44000	0
bin	48000	0
bin	52000	0
bin	56000	0
bin	60000	0
bin	64000	0
bin	68000	0
bin	72000	0
bin	76000	1
bin	80000	0
bin	84000	0
bin	88000	0
bin	92000	0
bin	96000	0
bin	100000	0
bin	104000	0
bin	108000	0
bin	112000	1
bin	116000	0
bin	120000	0
bin	124000	0
bin	128000	0
bin	132000	0
bin	136000	0
bin	140000	0
bin	144000	0
bin	148000	0
bin	152000	0
bin	156000	0
bin	160000	0
bin	164000	0
bin	168000	0
bin	172000	0
bin	176000	0
bin	180000	0
bin	184000	0
bin	188000	1
bin	192000	0
statistic EigrpTestNetwork.R2.eth[0].mac utilization:histogram
field count 1800
field mean 0.00055075555555556
field stddev 0.005755576080273
field min 0
field max 0.19008
field sum 0.99136
field sqrsum 0.0601408512
attr interpolationmode linear
attr recordingmode histogram
attr source "100 * utilization(count(transmissionStarted) - count(transmissionEnded))"
attr title utilization
attr unit %
bin	-inf	0
bin	0	1715
bin	0.004	80
bin	0.008	0
bin	0.012	1
bin	0.016	0
bin	0.02	0
bin	0.024	0
bin	0.028	0
bin	0.032	0
bin	0.036	1
bin	0.04	0
bin	0.044	0
bin	0.048	0
bin	0.052	0
bin	0.056	0
bin	0.06	0
bin	0.064	0
bin	0.068	0
bin	0.072	0
bin	0.076	1
bin	0.08	0
bin	0.084	0
bin	0.088	0
bin	0.092	0
bin	0.096	0
bin	0.1	0
bin	0.104	0
bin	0.108	0
bin	0.112	1
bin	0.116	0
bin	0.12	0
bin	0.124	0
bin	0.128	0
bin	0.132	0
bin	0.136	0
bin	0.14	0
bin	0.144	0
bin	0.148	0
bin	0.152	0
bin	0.156	0
bin	0.16	0
bin	0.164	0
bin	0.168	0
bin	0.172	0
bin	0.176	0
bin	0.18	0
bin	0.184	0
bin	0.188	1
bin	0.192	0
scalar EigrpTestNetwork.R2.eth[0].mac txPk:count 123
attr interpolationmode none
attr recordingmode count
attr source packetSentToLower
attr title "packets transmitted, count"
scalar EigrpTestNetwork.R2.eth[0].mac txPk:sum(packetBytes) 11408
attr interpolationmode none
attr recordingmode sum(packetBytes)
attr source packetSentToLower
attr title "packets transmitted, sum(packetBytes)"
scalar EigrpTestNetwork.R2.eth[0].mac packetReceivedFromUpper:count 123
attr interpolationmode none
attr recordingmode count
attr source packetReceivedFromUpper
attr title "packet bytes from higher layer, count"
scalar EigrpTestNetwork.R2.eth[0].mac packetReceivedFromUpper:sum(packetBytes) 11318
attr interpolationmode none
attr recordingmode sum(packetBytes)
attr source packetReceivedFromUpper
attr title "packet bytes from higher layer, sum(packetBytes)"
scalar EigrpTestNetwork.R2.eth[0].mac passedUpPk:count 123
attr interpolationmode none
attr recordingmode count
attr source packetSentToUpper
attr title "packets passed to higher layer, count"
scalar EigrpTestNetwork.R2.eth[0].mac passedUpPk:sum(packetBytes) 11098
attr interpolationmode none
attr recordingmode sum(packetBytes)
attr source packetSentToUpper
attr title "packets passed to higher layer, sum(packetBytes)"
scalar EigrpTestNetwork.R2.eth[0].mac packetDropIncorrectlyReceived:count 0
attr interpolationmode none
attr recordingmode count
attr source packetDropReasonIsIncorrectlyReceived(packetDropped)
attr title "packet drop: incorrectly received, count"
scalar EigrpTestNetwork.R2.eth[0].mac packetDropIncorrectlyReceived:sum(packetBytes) 0
attr interpolationmode none
attr recordingmode sum(packetBytes)
attr source packetDropReasonIsIncorrectlyReceived(packetDropped)
attr title "packet drop: incorrectly received, sum(packetBytes)"
scalar EigrpTestNetwork.R2.eth[0].mac packetDropInterfaceDown:count 0
attr interpolationmode none
attr recordingmode count
attr source packetDropReasonIsInterfaceDown(packetDropped)
attr title "packet drop: interface down, count"
scalar EigrpTestNetwork.R2.eth[0].mac packetDropInterfaceDown:sum(packetBytes) 0
attr interpolationmode none
attr recordingmode sum(packetBytes)
attr source packetDropReasonIsInterfaceDown(packetDropped)
attr title "packet drop: interface down, sum(packetBytes)"
scalar EigrpTestNetwork.R2.eth[0].mac packetDropNotAddressedToUs:count 0
attr interpolationmode none
attr recordingmode count
attr source packetDropReasonIsNotAddressedToUs(packetDropped)
attr title "packet drop: not addressed to us, count"
scalar EigrpTestNetwork.R2.eth[0].mac packetDropNotAddressedToUs:sum(packetBytes) 0
attr interpolationmode none
attr recordingmode sum(packetBytes)
attr source packetDropReasonIsNotAddressedToUs(packetDropped)
attr title "packet drop: not addressed to us, sum(packetBytes)"
scalar EigrpTestNetwork.R2.eth[0] packetDropInterfaceDown:count 0
attr interpolationmode none
attr recordingmode count
attr source packetDropReasonIsInterfaceDown(packetDropped)
attr title "packet drops: interface down, count"
scalar EigrpTestNetwork.R2.eth[0] packetDropInterfaceDown:sum(packetBytes) 0
attr interpolationmode none
attr recordingmode sum(packetBytes)
attr source packetDropReasonIsInterfaceDown(packetDropped)
attr title "packet drops: interface down, sum(packetBytes)"
scalar EigrpTestNetwork.R2.eth[0] packetDropNoCarrier:count 0
attr interpolationmode none
attr recordingmode count
attr source packetDropReasonIsNoCarrier(packetDropped)
attr title "packet drops: no carrier, count"
scalar EigrpTestNetwork.R2.eth[0] packetDropNoCarrier:sum(packetBytes) 0
attr interpolationmode none
attr recordingmode sum(packetBytes)
attr source packetDropReasonIsNoCarrier(packetDropped)
attr title "packet drops: no carrier, sum(packetBytes)"
scalar EigrpTestNetwork.R2.eth[1].queue queueLength:last 0
attr autoWarmupFilter false
attr interpolationmode sample-hold
attr recordingmode last
attr source "warmup(atomic(constant0(packetPushEnded) + count(packetPushStarted) - count(packetPulled) - count(packetRemoved) - count(packetDropped)))"
attr title "queue length, last"
attr unit pk
scalar EigrpTestNetwork.R2.eth[1].queue queueLength:max 2
attr autoWarmupFilter false
attr interpolationmode sample-hold
attr recordingmode max
attr source "warmup(atomic(constant0(packetPushEnded) + count(packetPushStarted) - count(packetPulled) - count(packetRemoved) - count(packetDropped)))"
attr title "queue length, max"
attr unit pk
scalar EigrpTestNetwork.R2.eth[1].queue queueLength:timeavg 2.4277777777778e-07
attr autoWarmupFilter false
attr interpolationmode sample-hold
attr recordingmode timeavg
attr source "warmup(atomic(constant0(packetPushEnded) + count(packetPushStarted) - count(packetPulled) - count(packetRemoved) - count(packetDropped)))"
attr title "queue length, timeavg"
attr unit pk
scalar EigrpTestNetwork.R2.eth[1].queue queueBitLength:last 0
attr autoWarmupFilter false
attr interpolationmode sample-hold
attr recordingmode last
attr source "warmup(atomic(constant0(packetPushEnded) + sum(packetLength(packetPushStarted)) - sum(packetLength(packetPulled)) - sum(packetLength(packetRemoved)) - sum(packetLength(packetDropped))))"
attr title "queue bit length, last"
attr unit b
scalar EigrpTestNetwork.R2.eth[1].queue queueBitLength:max 3888
attr autoWarmupFilter false
attr interpolationmode sample-hold
attr recordingmode max
attr source "warmup(atomic(constant0(packetPushEnded) + sum(packetLength(packetPushStarted)) - sum(packetLength(packetPulled)) - sum(packetLength(packetRemoved)) - sum(packetLength(packetDropped))))"
attr title "queue bit length, max"
attr unit b
scalar EigrpTestNetwork.R2.eth[1].queue queueBitLength:timeavg 0.00016972622222222
attr autoWarmupFilter false
attr interpolationmode sample-hold
attr recordingmode timeavg
attr source "warmup(atomic(constant0(packetPushEnded) + sum(packetLength(packetPushStarted)) - sum(packetLength(packetPulled)) - sum(packetLength(packetRemoved)) - sum(packetLength(packetDropped))))"
attr title "queue bit length, timeavg"
attr unit b
statistic EigrpTestNetwork.R2.eth[1].queue queueingTime:histogram
field count 23
field mean 1.9e-06
field stddev 3.1904972539203e-06
field min 0
field max 8.8e-06
field sum 4.37e-05
field sqrsum 3.06974e-10
attr interpolationmode none
attr recordingmode histogram
attr source queueingTime(packetPulled)
attr title "queueing times"
attr unit s
bin	-inf	0
bin	0	15
bin	2e-07	0
bin	4e-07	0
bin	6e-07	0
bin	8e-07	0
bin	1e-06	0
bin	1.2e-06	0
bin	1.4e-06	0
bin	1.6e-06	0
bin	1.8e-06	3
bin	2e-06	0
bin	2.2e-06	0
bin	2.4e-06	0
bin	2.6e-06	0
bin	2.8e-06	0
bin	3e-06	0
bin	3.2e-06	0
bin	3.4e-06	0
bin	3.6e-06	0
bin	3.8e-06	0
bin	4e-06	0
bin	4.2e-06	0
bin	4.4e-06	0
bin	4.6e-06	0
bin	4.8e-06	0
bin	5e-06	0
bin	5.2e-06	0
bin	5.4e-06	0
bin	5.6e-06	0
bin	5.8e-06	0
bin	6e-06	0
bin	6.2e-06	0
bin	6.4e-06	0
bin	6.6e-06	2
bin	6.8e-06	0
bin	7e-06	1
bin	7.2e-06	0
bin	7.4e-06	0
bin	7.6e-06	0
bin	7.8e-06	0
bin	8e-06	0
bin	8.2e-06	0
bin	8.4e-06	0
bin	8.6e-06	2
bin	8.8e-06	0
bin	9e-06	0
bin	9.2e-06	0
bin	9.4e-06	0
bin	9.6e-06	0
bin	9.8e-06	0
bin	1e-05	0
bin	1.02e-05	0
bin	1.04e-05	0
bin	1.06e-05	0
bin	1.08e-05	0
bin	1.1e-05	0
scalar EigrpTestNetwork.R2.eth[1].queue outgoingPackets:count 23
attr recordingmode count
attr source packetPulled
attr title "outgoing packets, count"
attr unit pk
scalar EigrpTestNetwork.R2.eth[1].queue outgoingPacketLengths:sum 21136
attr interpolationmode none
attr recordingmode sum
attr source packetLength(packetPulled)
attr title "outgoing packet lengths, sum"
attr unit b
statistic EigrpTestNetwork.R2.eth[1].queue outgoingPacketLengths:histogram
field count 23
field mean 918.95652173913
field stddev 853.31884045664
field min 368
field max 3888
field sum 21136
field sqrsum 35442432
attr interpolationmode none
attr recordingmode histogram
attr source packetLength(packetPulled)
attr title "outgoing packet lengths"
attr unit b
bin	-inf	0
bin	0	0
bin	100	0
bin	200	0
bin	300	2
bin	400	4
bin	500	3
bin	600	5
bin	700	4
bin	800	0
bin	900	0
bin	1000	0
bin	1100	2
bin	1200	0
bin	1300	0
bin	1400	0
bin	1500	0
bin	1600	0
bin	1700	1
bin	1800	0
bin	1900	0
bin	2000	0
bin	2100	0
bin	2200	0
bin	2300	0
bin	2400	0
bin	2500	0
bin	2600	0
bin	2700	0
bin	2800	0
bin	2900	1
bin	3000	0
bin	3100	0
bin	3200	0
bin	3300	0
bin	3400	0
bin	3500	0
bin	3600	0
bin	3700	0
bin	3800	1
bin	3900	0
bin	4000	0
bin	4100	0
bin	4200	0
bin	4300	0
bin	4400	0
bin	4500	0
bin	4600	0
bin	4700	0
bin	4800	0
statistic EigrpTestNetwork.R2.eth[1].queue flowQueueingTime:histogram
field count 0
field mean -nan
field stddev nan
field min nan
field max nan
field sum 0
field sqrsum 0
attr interpolationmode none
attr recordingmode histogram
attr source queueingTime(demuxFlow(packetPulled))
attr title "flow queueing times"
attr unit s
bin	-inf	0
bin	0	0
bin	1	0
scalar EigrpTestNetwork.R2.eth[1].queue incomingPackets:count 23
attr recordingmode count
attr source packetPushStarted
attr title "incoming packets, count"
attr unit pk
scalar EigrpTestNetwork.R2.eth[1].queue incomingPacketLengths:sum 21136
attr interpolationmode none
attr recordingmode sum
attr source packetLength(packetPushStarted)
attr title "incoming packet lengths, sum"
attr unit b
statistic EigrpTestNetwork.R2.eth[1].queue incomingPacketLengths:histogram
field count 23
field mean 918.95652173913
field stddev 853.31884045664
field min 368
field max 3888
field sum 21136
field sqrsum 35442432
attr interpolationmode none
attr recordingmode histogram
attr source packetLength(packetPushStarted)
attr title "incoming packet lengths"
attr unit b
bin	-inf	0
bin	0	0
bin	100	0
bin	200	0
bin	300	2
bin	400	4
bin	500	3
bin	600	5
bin	700	4
bin	800	0
bin	900	0
bin	1000	0
bin	1100	2
bin	1200	0
bin	1300	0
bin	1400	0
bin	1500	0
bin	1600	0
bin	1700	1
bin	1800	0
bin	1900	0
bin	2000	0
bin	2100	0
bin	2200	0
bin	2300	0
bin	2400	0
bin	2500	0
bin	2600	0
bin	2700	0
bin	2800	0
bin	2900	1
bin	3000	0
bin	3100	0
bin	3200	0
bin	3300	0
bin	3400	0
bin	3500	0
bin	3600	0
bin	3700	0
bin	3800	1
bin	3900	0
bin	4000	0
bin	4100	0
bin	4200	0
bin	4300	0
bin	4400	0
bin	4500	0
bin	4600	0
bin	4700	0
bin	4800	0
scalar EigrpTestNetwork.R2.eth[1].queue droppedPacketsQueueOverflow:count 0
attr interpolationmode none
attr recordingmode count
attr source packetDropReasonIsQueueOverflow(packetDropped)
attr title "dropped packets: queue overflow, count"
attr unit pk
scalar EigrpTestNetwork.R2.eth[1].queue droppedPacketLengthsQueueOverflow:sum 0
attr interpolationmode none
attr recordingmode sum
attr source packetLength(packetDropReasonIsQueueOverflow(packetDropped))
attr title "dropped packet lengths: queue overflow, sum"
attr unit b
scalar EigrpTestNetwork.R2.eth[1].mac "simulated time" 180
scalar EigrpTestNetwork.R2.eth[1].mac full-duplex 1
scalar EigrpTestNetwork.R2.eth[1].mac "frames/sec sent" 0.12777777777778
scalar EigrpTestNetwork.R2.eth[1].mac "frames/sec rcvd" 0.12777777777778
scalar EigrpTestNetwork.R2.eth[1].mac "bits/sec sent" 120.08888888889
scalar EigrpTestNetwork.R2.eth[1].mac "bits/sec rcvd" 126.13333333333
scalar EigrpTestNetwork.R2.eth[1].mac "rx channel idle (%)" 99.999865688889
scalar EigrpTestNetwork.R2.eth[1].mac "rx channel utilization (%)" 0.00013431111111111
scalar EigrpTestNetwork.R2.eth[1].mac rxPausePkUnits:count 0
attr interpolationmode none
attr recordingmode count
attr title "pause units received, count"
scalar EigrpTestNetwork.R2.eth[1].mac rxPausePkUnits:sum 0
attr interpolationmode none
attr recordingmode sum
attr title "pause units received, sum"
scalar EigrpTestNetwork.R2.eth[1].mac txPausePkUnits:count 0
attr interpolationmode none
attr recordingmode count
attr title "pause units sent, count"
scalar EigrpTestNetwork.R2.eth[1].mac txPausePkUnits:sum 0
attr interpolationmode none
attr recordingmode sum
attr title "pause units sent, sum"
scalar EigrpTestNetwork.R2.eth[1].mac rxPkOk:count 23
attr interpolationmode none
attr recordingmode count
attr source rxPkOk
attr title "packets received OK, count"
scalar EigrpTestNetwork.R2.eth[1].mac rxPkOk:sum(packetBytes) 2838
attr interpolationmode none
attr recordingmode sum(packetBytes)
attr source rxPkOk
attr title "packets received OK, sum(packetBytes)"
statistic EigrpTestNetwork.R2.eth[1].mac throughput:histogram
field count 1800
field mean 128.26666666667
field stddev 3121.7382481284
field min 0
field max 100480
field sum 230880
field sqrsum 17561318400
attr interpolationmode linear
attr recordingmode histogram
attr source throughput(transmissionEnded)
attr title throughput
attr unit bps
bin	-inf	0
bin	0	1793
bin	2000	0
bin	4000	0
bin	6000	4
bin	8000	0
bin	10000	0
bin	12000	0
bin	14000	0
bin	16000	0
bin	18000	1
bin	20000	0
bin	22000	0
bin	24000	0
bin	26000	0
bin	28000	0
bin	30000	0
bin	32000	0
bin	34000	0
bin	36000	0
bin	38000	0
bin	40000	0
bin	42000	0
bin	44000	0
bin	46000	0
bin	48000	0
bin	50000	0
bin	52000	0
bin	54000	0
bin	56000	0
bin	58000	0
bin	60000	0
bin	62000	0
bin	64000	0
bin	66000	0
bin	68000	0
bin	70000	0
bin	72000	0
bin	74000	0
bin	76000	0
bin	78000	0
bin	80000	0
bin	82000	1
bin	84000	0
bin	86000	0
bin	88000	0
bin	90000	0
bin	92000	0
bin	94000	0
bin	96000	0
bin	98000	0
bin	100000	1
bin	102000	0
bin	104000	0
bin	106000	0
bin	108000	0
bin	110000	0
bin	112000	0
bin	114000	0
bin	116000	0
bin	118000	0
bin	120000	0
bin	122000	0
bin	124000	0
bin	126000	0
statistic EigrpTestNetwork.R2.eth[1].mac utilization:histogram
field count 1800
field mean 0.00012826666666667
field stddev 0.0031217382481284
field min 0
field max 0.10048
field sum 0.23088
field sqrsum 0.0175613184
attr interpolationmode linear
attr recordingmode histogram
attr source "100 * utilization(count(transmissionStarted) - count(transmissionEnded))"
attr title utilization
attr unit %
bin	-inf	0
bin	0	1793
bin	0.002	0
bin	0.004	0
bin	0.006	4
bin	0.008	0
bin	0.01	0
bin	0.012	0
bin	0.014	0
bin	0.016	0
bin	0.018	1
bin	0.02	0
bin	0.022	0
bin	0.024	0
bin	0.026	0
bin	0.028	0
bin	0.03	0
bin	0.032	0
bin	0.034	0
bin	0.036	0
bin	0.038	0
bin	0.04	0
bin	0.042	0
bin	0.044	0
bin	0.046	0
bin	0.048	0
bin	0.05	0
bin	0.052	0
bin	0.054	0
bin	0.056	0
bin	0.058	0
bin	0.06	0
bin	0.062	0
bin	0.064	0
bin	0.066	0
bin	0.068	0
bin	0.07	0
bin	0.072	0
bin	0.074	0
bin	0.076	0
bin	0.078	0
bin	0.08	0
bin	0.082	1
bin	0.084	0
bin	0.086	0
bin	0.088	0
bin	0.09	0
bin	0.092	0
bin	0.094	0
bin	0.096	0
bin	0.098	0
bin	0.1	1
bin	0.102	0
bin	0.104	0
bin	0.106	0
bin	0.108	0
bin	0.11	0
bin	0.112	0
bin	0.114	0
bin	0.116	0
bin	0.118	0
bin	0.12	0
bin	0.122	0
bin	0.124	0
bin	0.126	0
scalar EigrpTestNetwork.R2.eth[1].mac txPk:count 23
attr interpolationmode none
attr recordingmode count
attr source packetSentToLower
attr title "packets transmitted, count"
scalar EigrpTestNetwork.R2.eth[1].mac txPk:sum(packetBytes) 2702
attr interpolationmode none
attr recordingmode sum(packetBytes)
attr source packetSentToLower
attr title "packets transmitted, sum(packetBytes)"
scalar EigrpTestNetwork.R2.eth[1].mac packetReceivedFromUpper:count 23
attr interpolationmode none
attr recordingmode count
attr source packetReceivedFromUpper
attr title "packet bytes from higher layer, count"
scalar EigrpTestNetwork.R2.eth[1].mac packetReceivedFromUpper:sum(packetBytes) 2642
attr interpolationmode none
[...]
scalar EigrpTestNetwork.LAN4.ethernet encapPk:sum(packetBytes) 0
attr interpolationmode none
attr recordingmode sum(packetBytes)
attr source encapPk
attr title "packets encapsulated, sum(packetBytes)"
scalar EigrpTestNetwork.LAN4.lo[0].lo rcvdPkFromHl:count 0
attr interpolationmode none
attr recordingmode count
attr source packetReceivedFromUpper
attr title "packets received from higher layer, count"
scalar EigrpTestNetwork.LAN4.lo[0].lo rcvdPkFromHl:sum(packetBytes) 0
attr interpolationmode none
attr recordingmode sum(packetBytes)
attr source packetReceivedFromUpper
attr title "packets received from higher layer, sum(packetBytes)"
scalar EigrpTestNetwork.LAN4.lo[0].lo passedUpPk:count 0
attr interpolationmode none
attr recordingmode count
attr source packetSentToUpper
attr title "packets passed to higher layer, count"
scalar EigrpTestNetwork.LAN4.lo[0].lo passedUpPk:sum(packetBytes) 0
attr interpolationmode none
attr recordingmode sum(packetBytes)
attr source packetSentToUpper
attr title "packets passed to higher layer, sum(packetBytes)"
scalar EigrpTestNetwork.LAN4.lo[0] packetDropInterfaceDown:count 0
attr interpolationmode none
attr recordingmode count
attr source packetDropReasonIsInterfaceDown(packetDropped)
attr title "packet drops: interface down, count"
scalar EigrpTestNetwork.LAN4.lo[0] packetDropInterfaceDown:sum(packetBytes) 0
attr interpolationmode none
attr recordingmode sum(packetBytes)
attr source packetDropReasonIsInterfaceDown(packetDropped)
attr title "packet drops: interface down, sum(packetBytes)"
scalar EigrpTestNetwork.LAN4.lo[0] packetDropNoCarrier:count 0
attr interpolationmode none
attr recordingmode count
attr source packetDropReasonIsNoCarrier(packetDropped)
attr title "packet drops: no carrier, count"
scalar EigrpTestNetwork.LAN4.lo[0] packetDropNoCarrier:sum(packetBytes) 0
attr interpolationmode none
attr recordingmode sum(packetBytes)
attr source packetDropReasonIsNoCarrier(packetDropped)
attr title "packet drops: no carrier, sum(packetBytes)"
scalar EigrpTestNetwork.LAN4.eth[0].queue queueLength:last 0
attr autoWarmupFilter false
attr interpolationmode sample-hold
attr recordingmode last
attr source "warmup(atomic(constant0(packetPushEnded) + count(packetPushStarted) - count(packetPulled) - count(packetRemoved) - count(packetDropped)))"
attr title "queue length, last"
attr unit pk
scalar EigrpTestNetwork.LAN4.eth[0].queue queueLength:max 0
attr autoWarmupFilter false
attr interpolationmode sample-hold
attr recordingmode max
attr source "warmup(atomic(constant0(packetPushEnded) + count(packetPushStarted) - count(packetPulled) - count(packetRemoved) - count(packetDropped)))"
attr title "queue length, max"
attr unit pk
scalar EigrpTestNetwork.LAN4.eth[0].queue queueLength:timeavg 0
attr autoWarmupFilter false
attr interpolationmode sample-hold
attr recordingmode timeavg
attr source "warmup(atomic(constant0(packetPushEnded) + count(packetPushStarted) - count(packetPulled) - count(packetRemoved) - count(packetDropped)))"
attr title "queue length, timeavg"
attr unit pk
scalar EigrpTestNetwork.LAN4.eth[0].queue queueBitLength:last 0
attr autoWarmupFilter false
attr interpolationmode sample-hold
attr recordingmode last
attr source "warmup(atomic(constant0(packetPushEnded) + sum(packetLength(packetPushStarted)) - sum(packetLength(packetPulled)) - sum(packetLength(packetRemoved)) - sum(packetLength(packetDropped))))"
attr title "queue bit length, last"
attr unit b
scalar EigrpTestNetwork.LAN4.eth[0].queue queueBitLength:max 0
attr autoWarmupFilter false
attr interpolationmode sample-hold
attr recordingmode max
attr source "warmup(atomic(constant0(packetPushEnded) + sum(packetLength(packetPushStarted)) - sum(packetLength(packetPulled)) - sum(packetLength(packetRemoved)) - sum(packetLength(packetDropped))))"
attr title "queue bit length, max"
attr unit b
scalar EigrpTestNetwork.LAN4.eth[0].queue queueBitLength:timeavg 0
attr autoWarmupFilter false
attr interpolationmode sample-hold
attr recordingmode timeavg
attr source "warmup(atomic(constant0(packetPushEnded) + sum(packetLength(packetPushStarted)) - sum(packetLength(packetPulled)) - sum(packetLength(packetRemoved)) - sum(packetLength(packetDropped))))"
attr title "queue bit length, timeavg"
attr unit b
statistic EigrpTestNetwork.LAN4.eth[0].queue queueingTime:histogram
field count 0
field mean -nan
field stddev nan
field min nan
field max nan
field sum 0
field sqrsum 0
attr interpolationmode none
attr recordingmode histogram
attr source queueingTime(packetPulled)
attr title "queueing times"
attr unit s
bin	-inf	0
bin	0	0
bin	1	0
scalar EigrpTestNetwork.LAN4.eth[0].queue outgoingPackets:count 0
attr recordingmode count
attr source packetPulled
attr title "outgoing packets, count"
attr unit pk
scalar EigrpTestNetwork.LAN4.eth[0].queue outgoingPacketLengths:sum 0
attr interpolationmode none
attr recordingmode sum
attr source packetLength(packetPulled)
attr title "outgoing packet lengths, sum"
attr unit b
statistic EigrpTestNetwork.LAN4.eth[0].queue outgoingPacketLengths:histogram
field count 0
field mean -nan
field stddev nan
field min nan
field max nan
field sum 0
field sqrsum 0
attr interpolationmode none
attr recordingmode histogram
attr source packetLength(packetPulled)
attr title "outgoing packet lengths"
attr unit b
bin	-inf	0
bin	0	0
bin	1	0
statistic EigrpTestNetwork.LAN4.eth[0].queue flowQueueingTime:histogram
field count 0
field mean -nan
field stddev nan
field min nan
field max nan
field sum 0
field sqrsum 0
attr interpolationmode none
attr recordingmode histogram
attr source queueingTime(demuxFlow(packetPulled))
attr title "flow queueing times"
attr unit s
bin	-inf	0
bin	0	0
bin	1	0
scalar EigrpTestNetwork.LAN4.eth[0].queue incomingPackets:count 0
attr recordingmode count
attr source packetPushStarted
attr title "incoming packets, count"
attr unit pk
scalar EigrpTestNetwork.LAN4.eth[0].queue incomingPacketLengths:sum 0
attr interpolationmode none
attr recordingmode sum
attr source packetLength(packetPushStarted)
attr title "incoming packet lengths, sum"
attr unit b
statistic EigrpTestNetwork.LAN4.eth[0].queue incomingPacketLengths:histogram
field count 0
field mean -nan
field stddev nan
field min nan
field max nan
field sum 0
field sqrsum 0
attr interpolationmode none
attr recordingmode histogram
attr source packetLength(packetPushStarted)
attr title "incoming packet lengths"
attr unit b
bin	-inf	0
bin	0	0
bin	1	0
scalar EigrpTestNetwork.LAN4.eth[0].queue droppedPacketsQueueOverflow:count 0
attr interpolationmode none
attr recordingmode count
attr source packetDropReasonIsQueueOverflow(packetDropped)
attr title "dropped packets: queue overflow, count"
attr unit pk
scalar EigrpTestNetwork.LAN4.eth[0].queue droppedPacketLengthsQueueOverflow:sum 0
attr interpolationmode none
attr recordingmode sum
attr source packetLength(packetDropReasonIsQueueOverflow(packetDropped))
attr title "dropped packet lengths: queue overflow, sum"
attr unit b
scalar EigrpTestNetwork.LAN4.eth[0].mac "simulated time" 180
scalar EigrpTestNetwork.LAN4.eth[0].mac full-duplex 1
scalar EigrpTestNetwork.LAN4.eth[0].mac "frames/sec sent" 0
scalar EigrpTestNetwork.LAN4.eth[0].mac "frames/sec rcvd" 0
scalar EigrpTestNetwork.LAN4.eth[0].mac "bits/sec sent" 0
scalar EigrpTestNetwork.LAN4.eth[0].mac "bits/sec rcvd" 0
scalar EigrpTestNetwork.LAN4.eth[0].mac "rx channel idle (%)" 100
scalar EigrpTestNetwork.LAN4.eth[0].mac "rx channel utilization (%)" 0
scalar EigrpTestNetwork.LAN4.eth[0].mac rxPausePkUnits:count 0
attr interpolationmode none
attr recordingmode count
attr title "pause units received, count"
scalar EigrpTestNetwork.LAN4.eth[0].mac rxPausePkUnits:sum 0
attr interpolationmode none
attr recordingmode sum
attr title "pause units received, sum"
scalar EigrpTestNetwork.LAN4.eth[0].mac txPausePkUnits:count 0
attr interpolationmode none
attr recordingmode count
attr title "pause units sent, count"
scalar EigrpTestNetwork.LAN4.eth[0].mac txPausePkUnits:sum 0
attr interpolationmode none
attr recordingmode sum
attr title "pause units sent, sum"
scalar EigrpTestNetwork.LAN4.eth[0].mac rxPkOk:count 0
attr interpolationmode none
attr recordingmode count
attr source rxPkOk
attr title "packets received OK, count"
scalar EigrpTestNetwork.LAN4.eth[0].mac rxPkOk:sum(packetBytes) 0
attr interpolationmode none
attr recordingmode sum(packetBytes)
attr source rxPkOk
attr title "packets received OK, sum(packetBytes)"
statistic EigrpTestNetwork.LAN4.eth[0].mac throughput:histogram
field count 1800
field mean 0
field stddev 0
field min 0
field max 0
field sum 0
field sqrsum 0
attr interpolationmode linear
attr recordingmode histogram
attr source throughput(transmissionEnded)
attr title throughput
attr unit bps
bin	-inf	0
bin	-0.5	0
bin	-0.48	0
bin	-0.46	0
bin	-0.44	0
bin	-0.42	0
bin	-0.4	0
bin	-0.38	0
bin	-0.36	0
bin	-0.34	0
bin	-0.32	0
bin	-0.3	0
bin	-0.28	0
bin	-0.26	0
bin	-0.24	0
bin	-0.22	0
bin	-0.2	0
bin	-0.18	0
bin	-0.16	0
bin	-0.14	0
bin	-0.12	0
bin	-0.1	0
bin	-0.08	0
bin	-0.06	0
bin	-0.04	0
bin	-0.02	0
bin	0	1800
bin	0.02	0
bin	0.04	0
bin	0.06	0
bin	0.08	0
bin	0.1	0
bin	0.12	0
bin	0.14	0
bin	0.16	0
bin	0.18	0
bin	0.2	0
bin	0.22	0
bin	0.24	0
bin	0.26	0
bin	0.28	0
bin	0.3	0
bin	0.32	0
bin	0.34	0
bin	0.36	0
bin	0.38	0
bin	0.4	0
bin	0.42	0
bin	0.44	0
bin	0.46	0
bin	0.48	0
bin	0.5	0
statistic EigrpTestNetwork.LAN4.eth[0].mac utilization:histogram
field count 1800
field mean 0
field stddev 0
field min 0
field max 0
field sum 0
field sqrsum 0
attr interpolationmode linear
attr recordingmode histogram
attr source "100 * utilization(count(transmissionStarted) - count(transmissionEnded))"
attr title utilization
attr unit %
bin	-inf	0
bin	-0.5	0
bin	-0.48	0
bin	-0.46	0
bin	-0.44	0
bin	-0.42	0
bin	-0.4	0
bin	-0.38	0
bin	-0.36	0
bin	-0.34	0
bin	-0.32	0
bin	-0.3	0
bin	-0.28	0
bin	-0.26	0
bin	-0.24	0
bin	-0.22	0
bin	-0.2	0
bin	-0.18	0
bin	-0.16	0
bin	-0.14	0
bin	-0.12	0
bin	-0.1	0
bin	-0.08	0
bin	-0.06	0
bin	-0.04	0
bin	-0.02	0
bin	0	1800
bin	0.02	0
bin	0.04	0
bin	0.06	0
bin	0.08	0
bin	0.1	0
bin	0.12	0
bin	0.14	0
bin	0.16	0
bin	0.18	0
bin	0.2	0
bin	0.22	0
bin	0.24	0
bin	0.26	0
bin	0.28	0
bin	0.3	0
bin	0.32	0
bin	0.34	0
bin	0.36	0
bin	0.38	0
bin	0.4	0
bin	0.42	0
bin	0.44	0
bin	0.46	0
bin	0.48	0
bin	0.5	0
scalar EigrpTestNetwork.LAN4.eth[0].mac txPk:count 0
attr interpolationmode none
attr recordingmode count
attr source packetSentToLower
attr title "packets transmitted, count"
scalar EigrpTestNetwork.LAN4.eth[0].mac txPk:sum(packetBytes) 0
attr interpolationmode none
attr recordingmode sum(packetBytes)
attr source packetSentToLower
attr title "packets transmitted, sum(packetBytes)"
scalar EigrpTestNetwork.LAN4.eth[0].mac packetReceivedFromUpper:count 0
attr interpolationmode none
attr recordingmode count
attr source packetReceivedFromUpper
attr title "packet bytes from higher layer, count"
scalar EigrpTestNetwork.LAN4.eth[0].mac packetReceivedFromUpper:sum(packetBytes) 0
attr interpolationmode none
attr recordingmode sum(packetBytes)
attr source packetReceivedFromUpper
attr title "packet bytes from higher layer, sum(packetBytes)"
scalar EigrpTestNetwork.LAN4.eth[0].mac passedUpPk:count 0
attr interpolationmode none
attr recordingmode count
attr source packetSentToUpper
attr title "packets passed to higher layer, count"
scalar EigrpTestNetwork.LAN4.eth[0].mac passedUpPk:sum(packetBytes) 0
attr interpolationmode none
attr recordingmode sum(packetBytes)
attr source packetSentToUpper
attr title "packets passed to higher layer, sum(packetBytes)"
scalar EigrpTestNetwork.LAN4.eth[0].mac packetDropIncorrectlyReceived:count 0
attr interpolationmode none
attr recordingmode count
attr source packetDropReasonIsIncorrectlyReceived(packetDropped)
attr title "packet drop: incorrectly received, count"
scalar EigrpTestNetwork.LAN4.eth[0].mac packetDropIncorrectlyReceived:sum(packetBytes) 0
attr interpolationmode none
attr recordingmode sum(packetBytes)
attr source packetDropReasonIsIncorrectlyReceived(packetDropped)
attr title "packet drop: incorrectly received, sum(packetBytes)"
scalar EigrpTestNetwork.LAN4.eth[0].mac packetDropInterfaceDown:count 0
attr interpolationmode none
attr recordingmode count
attr source packetDropReasonIsInterfaceDown(packetDropped)
attr title "packet drop: interface down, count"
scalar EigrpTestNetwork.LAN4.eth[0].mac packetDropInterfaceDown:sum(packetBytes) 0
attr interpolationmode none
attr recordingmode sum(packetBytes)
attr source packetDropReasonIsInterfaceDown(packetDropped)
attr title "packet drop: interface down, sum(packetBytes)"
scalar EigrpTestNetwork.LAN4.eth[0].mac packetDropNotAddressedToUs:count 0
attr interpolationmode none
attr recordingmode count
attr source packetDropReasonIsNotAddressedToUs(packetDropped)
attr title "packet drop: not addressed to us, count"
scalar EigrpTestNetwork.LAN4.eth[0].mac packetDropNotAddressedToUs:sum(packetBytes) 0
attr interpolationmode none
attr recordingmode sum(packetBytes)
attr source packetDropReasonIsNotAddressedToUs(packetDropped)
attr title "packet drop: not addressed to us, sum(packetBytes)"
scalar EigrpTestNetwork.LAN4.eth[0] packetDropInterfaceDown:count 0
attr interpolationmode none
attr recordingmode count
attr source packetDropReasonIsInterfaceDown(packetDropped)
attr title "packet drops: interface down, count"
scalar EigrpTestNetwork.LAN4.eth[0] packetDropInterfaceDown:sum(packetBytes) 0
attr interpolationmode none
attr recordingmode sum(packetBytes)
attr source packetDropReasonIsInterfaceDown(packetDropped)
attr title "packet drops: interface down, sum(packetBytes)"
scalar EigrpTestNetwork.LAN4.eth[0] packetDropNoCarrier:count 0
attr interpolationmode none
attr recordingmode count
attr source packetDropReasonIsNoCarrier(packetDropped)
attr title "packet drops: no carrier, count"
scalar EigrpTestNetwork.LAN4.eth[0] packetDropNoCarrier:sum(packetBytes) 0
attr interpolationmode none
attr recordingmode sum(packetBytes)
attr source packetDropReasonIsNoCarrier(packetDropped)
attr title "packet drops: no carrier, sum(packetBytes)"
scalar EigrpTestNetwork.LAN4.ipv4.ip packetDropAddressResolutionFailed:count 0
attr interpolationmode none
attr recordingmode count
attr source packetDropReasonIsAddressResolutionFailed(packetDropped)
attr title "packet drop: address resolution failed, count"
scalar EigrpTestNetwork.LAN4.ipv4.ip packetDropAddressResolutionFailed:sum(packetBytes) 0
attr interpolationmode none
attr recordingmode sum(packetBytes)
attr source packetDropReasonIsAddressResolutionFailed(packetDropped)
attr title "packet drop: address resolution failed, sum(packetBytes)"
scalar EigrpTestNetwork.LAN4.ipv4.ip packetDropHopLimitReached:count 0
attr interpolationmode none
attr recordingmode count
attr source packetDropReasonIsHopLimitReached(packetDropped)
attr title "packet drop: hop limit reached, count"
scalar EigrpTestNetwork.LAN4.ipv4.ip packetDropHopLimitReached:sum(packetBytes) 0
attr interpolationmode none
attr recordingmode sum(packetBytes)
attr source packetDropReasonIsHopLimitReached(packetDropped)
attr title "packet drop: hop limit reached, sum(packetBytes)"
scalar EigrpTestNetwork.LAN4.ipv4.ip packetDropForwardingDisabled:count 0
attr interpolationmode none
attr recordingmode count
attr source packetDropReasonIsForwardingDisabled(packetDropped)
attr title "packet drop: forwarding disabled, count"
scalar EigrpTestNetwork.LAN4.ipv4.ip packetDropForwardingDisabled:sum(packetBytes) 0
attr interpolationmode none
attr recordingmode sum(packetBytes)
attr source packetDropReasonIsForwardingDisabled(packetDropped)
attr title "packet drop: forwarding disabled, sum(packetBytes)"
scalar EigrpTestNetwork.LAN4.ipv4.ip packetDropLifetimeExpired:count 0
attr interpolationmode none
attr recordingmode count
attr source packetDropReasonIsLifetimeExpired(packetDropped)
attr title "packet drop: lifetime expired, count"
scalar EigrpTestNetwork.LAN4.ipv4.ip packetDropLifetimeExpired:sum(packetBytes) 0
attr interpolationmode none
attr recordingmode sum(packetBytes)
attr source packetDropReasonIsLifetimeExpired(packetDropped)
attr title "packet drop: lifetime expired, sum(packetBytes)"
scalar EigrpTestNetwork.LAN4.ipv4.ip packetDropNoInterfaceFound:count 0
attr interpolationmode none
attr recordingmode count
attr source packetDropReasonIsNoInterfaceFound(packetDropped)
attr title "packet drop: no interface found, count"
scalar EigrpTestNetwork.LAN4.ipv4.ip packetDropNoInterfaceFound:sum(packetBytes) 0
attr interpolationmode none
attr recordingmode sum(packetBytes)
attr source packetDropReasonIsNoInterfaceFound(packetDropped)
attr title "packet drop: no interface found, sum(packetBytes)"
scalar EigrpTestNetwork.LAN4.ipv4.ip packetDropNoRouteFound:count 0
attr interpolationmode none
attr recordingmode count
attr source packetDropReasonIsNoRouteFound(packetDropped)
attr title "packet drop: no route found, count"
scalar EigrpTestNetwork.LAN4.ipv4.ip packetDropNoRouteFound:sum(packetBytes) 0
attr interpolationmode none
attr recordingmode sum(packetBytes)
attr source packetDropReasonIsNoRouteFound(packetDropped)
attr title "packet drop: no route found, sum(packetBytes)"
scalar EigrpTestNetwork.LAN4.ipv4.ip packetDropUndefined:count 0
attr interpolationmode none
attr recordingmode count
attr source packetDropReasonIsUndefined(packetDropped)
attr title "packet drop: undefined, count"
scalar EigrpTestNetwork.LAN4.ipv4.ip packetDropUndefined:sum(packetBytes) 0
attr interpolationmode none
attr recordingmode sum(packetBytes)
attr source packetDropReasonIsUndefined(packetDropped)
attr title "packet drop: undefined, sum(packetBytes)"
scalar EigrpTestNetwork.LAN4.ipv4.arp arpResolutionFailed:count 0
attr recordingmode count
attr title "ARP failed resolutions, count"
scalar EigrpTestNetwork.LAN4.ipv4.arp arpResolutionCompleted:count 0
attr recordingmode count
attr title "ARP completed resolutions, count"
scalar EigrpTestNetwork.LAN4.ipv4.arp arpResolutionInitiated:count 0
attr recordingmode count
attr title "ARP initiated resolutions, count"
scalar EigrpTestNetwork.LAN4.ipv4.arp arpReplySent:count 0
attr recordingmode count
attr source arpReplySent
attr title "ARP replies sent, count"
scalar EigrpTestNetwork.LAN4.ipv4.arp arpReplySent:sum(packetBytes) 0
attr recordingmode sum(packetBytes)
attr source arpReplySent
attr title "ARP replies sent, sum(packetBytes)"
scalar EigrpTestNetwork.LAN4.ipv4.arp arpRequestSent:count 0
attr recordingmode count
attr source arpRequestSent
attr title "ARP request sent, count"
scalar EigrpTestNetwork.LAN4.ipv4.arp arpRequestSent:sum(packetBytes) 0
attr recordingmode sum(packetBytes)
attr source arpRequestSent
attr title "ARP request sent, sum(packetBytes)"
scalar EigrpTestNetwork.LAN4.udp packetReceived:count 0
attr interpolationmode none
attr recordingmode count
attr source packetReceived
attr title "packets received, count"
scalar EigrpTestNetwork.LAN4.udp packetReceived:sum(packetBytes) 0
attr interpolationmode none
attr recordingmode sum(packetBytes)
attr source packetReceived
attr title "packets received, sum(packetBytes)"
scalar EigrpTestNetwork.LAN4.udp packetSent:count 0
attr interpolationmode none
attr recordingmode count
attr source packetSent
attr title "packets sent, count"
scalar EigrpTestNetwork.LAN4.udp packetSent:sum(packetBytes) 0
attr interpolationmode none
attr recordingmode sum(packetBytes)
attr source packetSent
attr title "packets sent, sum(packetBytes)"
scalar EigrpTestNetwork.LAN4.udp passedUpPk:count 0
attr interpolationmode none
attr recordingmode count
attr source packetSentToUpper
attr title "packets passed up, count"
scalar EigrpTestNetwork.LAN4.udp droppedPkWrongPort:count 0
attr interpolationmode none
attr recordingmode count
attr source packetDropReasonIsNoPortFound(packetDropped)
attr title "packets dropped (wrong port), count"
scalar EigrpTestNetwork.LAN4.udp droppedPkBadChecksum:count 0
attr interpolationmode none
attr recordingmode count
attr source packetDropReasonIsIncorrectlyReceived(packetDropped)
attr title "packets dropped (checksum error), count"

