version 3
run MultiIPv4-0-20260622-18:22:06-438496
attr configname MultiIPv4
attr datetime 20260622-18:22:06
attr datetimef 20260622-182206
attr experiment MultiIPv4
attr inifile omnetpp.ini
attr iterationvars ""
attr iterationvarsd ""
attr iterationvarsf ""
attr measurement ""
attr network DsdvNetwork
attr processid 438496
attr repetition 0
attr replication #0
attr resultdir results
attr runnumber 0
attr seedset 0
config **.param-recording false
config image-path /home/andras/projects/inet/images
config output-scalar-file results/omnetpp.ini-MultiIPv4-#0.sca
config output-scalar-precision 17
config output-vector-file results/omnetpp.ini-MultiIPv4-#0.vec
config output-vector-precision 17
config record-eventlog false
config sim-time-limit 10s
config sim-time-limit 10s
config description "using Ipv4 on multiple network protocols"
config extends _IPv4,_Multi
config description "base for ipv4"
config *.host[0].app[0].destAddr "\"host[1](ipv4)\""
config description "multiple network protocols"
config **.host[*].hasIpv4 true
config **.host[*].hasIpv6 true
config **.host[*].hasGn true
config **.host[*].generic.typename NextHopNetworkLayer
config network DsdvNetwork
config *.numHosts 20
config num-rngs 3
config **.mobility.rng-0 1
config **.wlan[*].mac.rng-0 2
config **.host[*].mobility.typename StationaryMobility
config **.mobility.constraintAreaMinZ 0m
config **.mobility.constraintAreaMaxZ 0m
config **.mobility.constraintAreaMinX 0m
config **.mobility.constraintAreaMinY 0m
config **.mobility.constraintAreaMaxX 600m
config **.mobility.constraintAreaMaxY 600m
config *.host[0].numApps 1
config *.host[0].app[*].typename PingApp
config *.host[0].app[0].startTime uniform(1s,5s)
config *.host[0].app[0].printPing true
config **.wlan[*].bitrate 2Mbps
config **.wlan[*].mac.dcf.channelAccess.cwMin 7
config **.wlan[*].radio.transmitter.power 2mW

scalar DsdvNetwork.radioMedium.propagation "Arrival computation count" 19304
scalar DsdvNetwork.radioMedium "transmission count" 1016
scalar DsdvNetwork.radioMedium "signal send count" 19304
scalar DsdvNetwork.radioMedium "reception computation count" 19304
scalar DsdvNetwork.radioMedium "interference computation count" 57519
scalar DsdvNetwork.radioMedium "reception decision computation count" 7414
scalar DsdvNetwork.radioMedium "listening decision computation count" 30930
scalar DsdvNetwork.radioMedium "reception cache hit" 81.42828280884716
scalar DsdvNetwork.radioMedium "interference cache hit" 66.66666666666667
scalar DsdvNetwork.radioMedium "noise cache hit" 0
scalar DsdvNetwork.radioMedium "snir cache hit" 50
scalar DsdvNetwork.radioMedium "reception decision cache hit" 50
scalar DsdvNetwork.radioMedium "reception result cache hit" 0
scalar DsdvNetwork.host[0].lo[0].lo rcvdPkFromHl:count 0
scalar DsdvNetwork.host[0].lo[0].lo rcvdPkFromHl:sum(packetBytes) 0
scalar DsdvNetwork.host[0].lo[0].lo passedUpPk:count 0
scalar DsdvNetwork.host[0].lo[0].lo passedUpPk:sum(packetBytes) 0
scalar DsdvNetwork.host[0].lo[0] packetDropInterfaceDown:count 0
scalar DsdvNetwork.host[0].lo[0] packetDropInterfaceDown:sum(packetBytes) 0
scalar DsdvNetwork.host[0].lo[0] packetDropNoCarrier:count 0
scalar DsdvNetwork.host[0].lo[0] packetDropNoCarrier:sum(packetBytes) 0
scalar DsdvNetwork.host[0].wlan[0].mac.dcf.channelAccess.pendingQueue queueLength:last 0
scalar DsdvNetwork.host[0].wlan[0].mac.dcf.channelAccess.pendingQueue queueLength:max 1
scalar DsdvNetwork.host[0].wlan[0].mac.dcf.channelAccess.pendingQueue queueLength:timeavg 0.0003059289886
scalar DsdvNetwork.host[0].wlan[0].mac.dcf.channelAccess.pendingQueue queueBitLength:last 0
scalar DsdvNetwork.host[0].wlan[0].mac.dcf.channelAccess.pendingQueue queueBitLength:max 960
scalar DsdvNetwork.host[0].wlan[0].mac.dcf.channelAccess.pendingQueue queueBitLength:timeavg 0.193397892224
scalar DsdvNetwork.host[0].wlan[0].mac.dcf.channelAccess.pendingQueue outgoingPackets:count 57
scalar DsdvNetwork.host[0].wlan[0].mac.dcf.channelAccess.pendingQueue outgoingPacketLengths:sum 35552
scalar DsdvNetwork.host[0].wlan[0].mac.dcf.channelAccess.pendingQueue incomingPackets:count 57
scalar DsdvNetwork.host[0].wlan[0].mac.dcf.channelAccess.pendingQueue incomingPacketLengths:sum 35552
scalar DsdvNetwork.host[0].wlan[0].mac.dcf.channelAccess.pendingQueue droppedPacketsQueueOverflow:count 0
scalar DsdvNetwork.host[0].wlan[0].mac.dcf.channelAccess.pendingQueue droppedPacketLengthsQueueOverflow:sum 0
scalar DsdvNetwork.host[0].wlan[0].mac.dcf.channelAccess.inProgressFrames queueLength:max 1
scalar DsdvNetwork.host[0].wlan[0].mac.dcf.channelAccess.inProgressFrames queueLength:timeavg 0.0036812432316000003
scalar DsdvNetwork.host[0].wlan[0].mac.dcf.channelAccess.contention channelAccessGranted:count 60
scalar DsdvNetwork.host[0].wlan[0].mac.dcf.channelAccess.contention stateChanged:count 1964
scalar DsdvNetwork.host[0].wlan[0].mac.dcf.channelAccess channelOwnershipChanged:count 120
scalar DsdvNetwork.host[0].wlan[0].mac.dcf.originatorMacDataService packetAggregated:count 0
scalar DsdvNetwork.host[0].wlan[0].mac.dcf.originatorMacDataService packetFragmented:count 0
scalar DsdvNetwork.host[0].wlan[0].mac.dcf.recipientMacDataService packetDeaggregated:count 0
scalar DsdvNetwork.host[0].wlan[0].mac.dcf.recipientMacDataService packetDefragmented:count 271
scalar DsdvNetwork.host[0].wlan[0].mac.dcf.recipientMacDataService packetDropDuplicateDetected:count 0
scalar DsdvNetwork.host[0].wlan[0].mac.dcf.recipientMacDataService packetDropDuplicateDetected:sum(packetBytes) 0
scalar DsdvNetwork.host[0].wlan[0].mac.dcf.recoveryProcedure retryLimitReached:count 0
scalar DsdvNetwork.host[0].wlan[0].mac.dcf frameSequenceFinished:count 60
scalar DsdvNetwork.host[0].wlan[0].mac.dcf packetReceivedFromPeer:count 280
scalar DsdvNetwork.host[0].wlan[0].mac.dcf packetReceivedFromPeer:sum(packetBytes) 20138
scalar DsdvNetwork.host[0].wlan[0].mac.dcf packetReceivedFromPeerUnicast:count 17
scalar DsdvNetwork.host[0].wlan[0].mac.dcf packetReceivedFromPeerUnicast:sum(packetBytes) 1030
scalar DsdvNetwork.host[0].wlan[0].mac.dcf packetReceivedFromPeerMulticast:count 263
scalar DsdvNetwork.host[0].wlan[0].mac.dcf packetReceivedFromPeerMulticast:sum(packetBytes) 19108
scalar DsdvNetwork.host[0].wlan[0].mac.dcf packetReceivedFromPeerBroadcast:count 256
scalar DsdvNetwork.host[0].wlan[0].mac.dcf packetReceivedFromPeerBroadcast:sum(packetBytes) 18408
scalar DsdvNetwork.host[0].wlan[0].mac.dcf packetReceivedFromPeerWithRetry:count 0
scalar DsdvNetwork.host[0].wlan[0].mac.dcf packetReceivedFromPeerWithRetry:sum(packetBytes) 0
scalar DsdvNetwork.host[0].wlan[0].mac.dcf packetReceivedFromPeerWithoutRetry:count 280
scalar DsdvNetwork.host[0].wlan[0].mac.dcf packetReceivedFromPeerWithoutRetry:sum(packetBytes) 20138
scalar DsdvNetwork.host[0].wlan[0].mac.dcf packetSentToPeer:count 68
scalar DsdvNetwork.host[0].wlan[0].mac.dcf packetSentToPeer:sum(packetBytes) 4916
scalar DsdvNetwork.host[0].wlan[0].mac.dcf packetSentToPeerUnicast:count 20
scalar DsdvNetwork.host[0].wlan[0].mac.dcf packetSentToPeerUnicast:sum(packetBytes) 1440
scalar DsdvNetwork.host[0].wlan[0].mac.dcf packetSentToPeerMulticast:count 48
scalar DsdvNetwork.host[0].wlan[0].mac.dcf packetSentToPeerMulticast:sum(packetBytes) 3476
scalar DsdvNetwork.host[0].wlan[0].mac.dcf packetSentToPeerBroadcast:count 47
scalar DsdvNetwork.host[0].wlan[0].mac.dcf packetSentToPeerBroadcast:sum(packetBytes) 3376
scalar DsdvNetwork.host[0].wlan[0].mac.dcf packetSentToPeerWithRetry:count 3
scalar DsdvNetwork.host[0].wlan[0].mac.dcf packetSentToPeerWithRetry:sum(packetBytes) 360
scalar DsdvNetwork.host[0].wlan[0].mac.dcf packetSentToPeerWithoutRetry:count 65
scalar DsdvNetwork.host[0].wlan[0].mac.dcf packetSentToPeerWithoutRetry:sum(packetBytes) 4556
scalar DsdvNetwork.host[0].wlan[0].mac.dcf packetDrop:count 16
scalar DsdvNetwork.host[0].wlan[0].mac.dcf packetDrop:sum(packetBytes) 960
scalar DsdvNetwork.host[0].wlan[0].mac.dcf packetDropNotAddressedToUs:count 16
scalar DsdvNetwork.host[0].wlan[0].mac.dcf packetDropNotAddressedToUs:sum(packetBytes) 960
scalar DsdvNetwork.host[0].wlan[0].mac.dcf packetDropQueueOverflow:count 0
scalar DsdvNetwork.host[0].wlan[0].mac.dcf packetDropQueueOverflow:sum(packetBytes) 0
scalar DsdvNetwork.host[0].wlan[0].mac.dcf packetDropRetryLimitReached:count 0
scalar DsdvNetwork.host[0].wlan[0].mac.dcf packetDropRetryLimitReached:sum(packetBytes) 0
scalar DsdvNetwork.host[0].wlan[0].mac.dcf linkBroken:count 0
scalar DsdvNetwork.host[0].wlan[0].mac packetReceivedFromLower:count 334
scalar DsdvNetwork.host[0].wlan[0].mac packetReceivedFromLower:sum(packetBytes) 23816
scalar DsdvNetwork.host[0].wlan[0].mac packetSentToLower:count 68
scalar DsdvNetwork.host[0].wlan[0].mac packetSentToLower:sum(packetBytes) 4916
scalar DsdvNetwork.host[0].wlan[0].mac packetReceivedFromUpper:count 57
scalar DsdvNetwork.host[0].wlan[0].mac packetReceivedFromUpper:sum(packetBytes) 2848
scalar DsdvNetwork.host[0].wlan[0].mac packetSentToUpper:count 271
scalar DsdvNetwork.host[0].wlan[0].mac packetSentToUpper:sum(packetBytes) 12424
scalar DsdvNetwork.host[0].wlan[0].mac packetDrop:count 53
scalar DsdvNetwork.host[0].wlan[0].mac packetDrop:sum(packetBytes) 3558
scalar DsdvNetwork.host[0].wlan[0].mac packetDropIncorrectlyReceived:count 37
scalar DsdvNetwork.host[0].wlan[0].mac packetDropIncorrectlyReceived:sum(packetBytes) 2598
scalar DsdvNetwork.host[0].wlan[0].mac packetDropNotAddressedToUs:count 16
scalar DsdvNetwork.host[0].wlan[0].mac packetDropNotAddressedToUs:sum(packetBytes) 960
scalar DsdvNetwork.host[0].wlan[0].mac packetDropQueueOverflow:count 0
scalar DsdvNetwork.host[0].wlan[0].mac packetDropQueueOverflow:sum(packetBytes) 0
scalar DsdvNetwork.host[0].wlan[0].mac packetDropRetryLimitReached:count 0
scalar DsdvNetwork.host[0].wlan[0].mac packetDropRetryLimitReached:sum(packetBytes) 0
scalar DsdvNetwork.host[0].wlan[0].mac packetDropDuplicateDetected:count 0
scalar DsdvNetwork.host[0].wlan[0].mac packetDropDuplicateDetected:sum(packetBytes) 0
scalar DsdvNetwork.host[0].wlan[0].mac packetDropOther:count 0
scalar DsdvNetwork.host[0].wlan[0].mac packetDropOther:sum(packetBytes) 0
scalar DsdvNetwork.host[0].wlan[0].mac linkBroken:count 0
scalar DsdvNetwork.host[0].wlan[0].radio radioMode:count 139
scalar DsdvNetwork.host[0].wlan[0].radio receptionState:count 838
scalar DsdvNetwork.host[0].wlan[0].radio transmissionState:count 272
scalar DsdvNetwork.host[0].wlan[0] packetDropInterfaceDown:count 0
scalar DsdvNetwork.host[0].wlan[0] packetDropInterfaceDown:sum(packetBytes) 0
scalar DsdvNetwork.host[0].wlan[0] packetDropNoCarrier:count 0
scalar DsdvNetwork.host[0].wlan[0] packetDropNoCarrier:sum(packetBytes) 0
scalar DsdvNetwork.host[0].ipv4.ip packetDropAddressResolutionFailed:count 0
scalar DsdvNetwork.host[0].ipv4.ip packetDropAddressResolutionFailed:sum(packetBytes) 0
scalar DsdvNetwork.host[0].ipv4.ip packetDropHopLimitReached:count 0
scalar DsdvNetwork.host[0].ipv4.ip packetDropHopLimitReached:sum(packetBytes) 0
scalar DsdvNetwork.host[0].ipv4.ip packetDropForwardingDisabled:count 0
scalar DsdvNetwork.host[0].ipv4.ip packetDropForwardingDisabled:sum(packetBytes) 0
scalar DsdvNetwork.host[0].ipv4.ip packetDropLifetimeExpired:count 0
scalar DsdvNetwork.host[0].ipv4.ip packetDropLifetimeExpired:sum(packetBytes) 0
scalar DsdvNetwork.host[0].ipv4.ip packetDropNoInterfaceFound:count 0
scalar DsdvNetwork.host[0].ipv4.ip packetDropNoInterfaceFound:sum(packetBytes) 0
scalar DsdvNetwork.host[0].ipv4.ip packetDropNoRouteFound:count 0
scalar DsdvNetwork.host[0].ipv4.ip packetDropNoRouteFound:sum(packetBytes) 0
scalar DsdvNetwork.host[0].ipv4.ip packetDropUndefined:count 0
scalar DsdvNetwork.host[0].ipv4.ip packetDropUndefined:sum(packetBytes) 0
scalar DsdvNetwork.host[0].ipv4.arp arpResolutionFailed:count 0
scalar DsdvNetwork.host[0].ipv4.arp arpResolutionCompleted:count 4
scalar DsdvNetwork.host[0].ipv4.arp arpResolutionInitiated:count 1
scalar DsdvNetwork.host[0].ipv4.arp arpReplySent:count 2
scalar DsdvNetwork.host[0].ipv4.arp arpReplySent:sum(packetBytes) 56
scalar DsdvNetwork.host[0].ipv4.arp arpRequestSent:count 1
scalar DsdvNetwork.host[0].ipv4.arp arpRequestSent:sum(packetBytes) 28
scalar DsdvNetwork.host[0].ipv6.neighbourDiscovery dadFailed:count 0
scalar DsdvNetwork.host[0].ipv6.neighbourDiscovery dadCompleted:count 1
scalar DsdvNetwork.host[0].ipv6.neighbourDiscovery startDad:count 1
scalar DsdvNetwork.host[0].udp packetReceived:count 0
scalar DsdvNetwork.host[0].udp packetReceived:sum(packetBytes) 0
scalar DsdvNetwork.host[0].udp packetSent:count 0
scalar DsdvNetwork.host[0].udp packetSent:sum(packetBytes) 0
scalar DsdvNetwork.host[0].udp passedUpPk:count 0
scalar DsdvNetwork.host[0].udp droppedPkWrongPort:count 0
scalar DsdvNetwork.host[0].udp droppedPkBadChecksum:count 0
scalar DsdvNetwork.host[0].app[0] "Pings sent" 7
scalar DsdvNetwork.host[0].app[0] "ping loss rate (%)" 0
scalar DsdvNetwork.host[0].app[0] "ping out-of-order rate (%)" 0
scalar DsdvNetwork.host[0].app[0] pingRxSeq:count 7
scalar DsdvNetwork.host[0].app[0] pingTxSeq:count 7
scalar DsdvNetwork.host[0].app[0] numOutOfOrderArrivals:last nan
scalar DsdvNetwork.host[0].app[0] numLost:last nan
scalar DsdvNetwork.host[1].lo[0].lo rcvdPkFromHl:count 0
scalar DsdvNetwork.host[1].lo[0].lo rcvdPkFromHl:sum(packetBytes) 0
scalar DsdvNetwork.host[1].lo[0].lo passedUpPk:count 0
scalar DsdvNetwork.host[1].lo[0].lo passedUpPk:sum(packetBytes) 0
scalar DsdvNetwork.host[1].lo[0] packetDropInterfaceDown:count 0
scalar DsdvNetwork.host[1].lo[0] packetDropInterfaceDown:sum(packetBytes) 0
scalar DsdvNetwork.host[1].lo[0] packetDropNoCarrier:count 0
scalar DsdvNetwork.host[1].lo[0] packetDropNoCarrier:sum(packetBytes) 0
scalar DsdvNetwork.host[1].wlan[0].mac.dcf.channelAccess.pendingQueue queueLength:last 0
scalar DsdvNetwork.host[1].wlan[0].mac.dcf.channelAccess.pendingQueue queueLength:max 1
scalar DsdvNetwork.host[1].wlan[0].mac.dcf.channelAccess.pendingQueue queueLength:timeavg 0.0004373381394
scalar DsdvNetwork.host[1].wlan[0].mac.dcf.channelAccess.pendingQueue queueBitLength:last 0
scalar DsdvNetwork.host[1].wlan[0].mac.dcf.channelAccess.pendingQueue queueBitLength:max 960
scalar DsdvNetwork.host[1].wlan[0].mac.dcf.channelAccess.pendingQueue queueBitLength:timeavg 0.3498779682944
scalar DsdvNetwork.host[1].wlan[0].mac.dcf.channelAccess.pendingQueue outgoingPackets:count 62
scalar DsdvNetwork.host[1].wlan[0].mac.dcf.channelAccess.pendingQueue outgoingPacketLengths:sum 38432
scalar DsdvNetwork.host[1].wlan[0].mac.dcf.channelAccess.pendingQueue incomingPackets:count 62
scalar DsdvNetwork.host[1].wlan[0].mac.dcf.channelAccess.pendingQueue incomingPacketLengths:sum 38432
scalar DsdvNetwork.host[1].wlan[0].mac.dcf.channelAccess.pendingQueue droppedPacketsQueueOverflow:count 0
scalar DsdvNetwork.host[1].wlan[0].mac.dcf.channelAccess.pendingQueue droppedPacketLengthsQueueOverflow:sum 0
scalar DsdvNetwork.host[1].wlan[0].mac.dcf.channelAccess.inProgressFrames queueLength:max 1
scalar DsdvNetwork.host[1].wlan[0].mac.dcf.channelAccess.inProgressFrames queueLength:timeavg 0.0033452911532000002
scalar DsdvNetwork.host[1].wlan[0].mac.dcf.channelAccess.contention channelAccessGranted:count 62
scalar DsdvNetwork.host[1].wlan[0].mac.dcf.channelAccess.contention stateChanged:count 1862
scalar DsdvNetwork.host[1].wlan[0].mac.dcf.channelAccess channelOwnershipChanged:count 124
scalar DsdvNetwork.host[1].wlan[0].mac.dcf.originatorMacDataService packetAggregated:count 0
scalar DsdvNetwork.host[1].wlan[0].mac.dcf.originatorMacDataService packetFragmented:count 0
scalar DsdvNetwork.host[1].wlan[0].mac.dcf.recipientMacDataService packetDeaggregated:count 0
scalar DsdvNetwork.host[1].wlan[0].mac.dcf.recipientMacDataService packetDefragmented:count 218
scalar DsdvNetwork.host[1].wlan[0].mac.dcf.recipientMacDataService packetDropDuplicateDetected:count 0
scalar DsdvNetwork.host[1].wlan[0].mac.dcf.recipientMacDataService packetDropDuplicateDetected:sum(packetBytes) 0
scalar DsdvNetwork.host[1].wlan[0].mac.dcf.recoveryProcedure retryLimitReached:count 0
scalar DsdvNetwork.host[1].wlan[0].mac.dcf frameSequenceFinished:count 62
scalar DsdvNetwork.host[1].wlan[0].mac.dcf packetReceivedFromPeer:count 227
scalar DsdvNetwork.host[1].wlan[0].mac.dcf packetReceivedFromPeer:sum(packetBytes) 16258
scalar DsdvNetwork.host[1].wlan[0].mac.dcf packetReceivedFromPeerUnicast:count 17
scalar DsdvNetwork.host[1].wlan[0].mac.dcf packetReceivedFromPeerUnicast:sum(packetBytes) 1030
scalar DsdvNetwork.host[1].wlan[0].mac.dcf packetReceivedFromPeerMulticast:count 210
scalar DsdvNetwork.host[1].wlan[0].mac.dcf packetReceivedFromPeerMulticast:sum(packetBytes) 15228
scalar DsdvNetwork.host[1].wlan[0].mac.dcf packetReceivedFromPeerBroadcast:count 205
scalar DsdvNetwork.host[1].wlan[0].mac.dcf packetReceivedFromPeerBroadcast:sum(packetBytes) 14728
scalar DsdvNetwork.host[1].wlan[0].mac.dcf packetReceivedFromPeerWithRetry:count 0
scalar DsdvNetwork.host[1].wlan[0].mac.dcf packetReceivedFromPeerWithRetry:sum(packetBytes) 0
scalar DsdvNetwork.host[1].wlan[0].mac.dcf packetReceivedFromPeerWithoutRetry:count 227
scalar DsdvNetwork.host[1].wlan[0].mac.dcf packetReceivedFromPeerWithoutRetry:sum(packetBytes) 16258
scalar DsdvNetwork.host[1].wlan[0].mac.dcf packetSentToPeer:count 70
scalar DsdvNetwork.host[1].wlan[0].mac.dcf packetSentToPeer:sum(packetBytes) 4916
scalar DsdvNetwork.host[1].wlan[0].mac.dcf packetSentToPeerUnicast:count 17
scalar DsdvNetwork.host[1].wlan[0].mac.dcf packetSentToPeerUnicast:sum(packetBytes) 1080
scalar DsdvNetwork.host[1].wlan[0].mac.dcf packetSentToPeerMulticast:count 53
scalar DsdvNetwork.host[1].wlan[0].mac.dcf packetSentToPeerMulticast:sum(packetBytes) 3836
scalar DsdvNetwork.host[1].wlan[0].mac.dcf packetSentToPeerBroadcast:count 52
scalar DsdvNetwork.host[1].wlan[0].mac.dcf packetSentToPeerBroadcast:sum(packetBytes) 3736
scalar DsdvNetwork.host[1].wlan[0].mac.dcf packetSentToPeerWithRetry:count 0
scalar DsdvNetwork.host[1].wlan[0].mac.dcf packetSentToPeerWithRetry:sum(packetBytes) 0
scalar DsdvNetwork.host[1].wlan[0].mac.dcf packetSentToPeerWithoutRetry:count 70
scalar DsdvNetwork.host[1].wlan[0].mac.dcf packetSentToPeerWithoutRetry:sum(packetBytes) 4916
scalar DsdvNetwork.host[1].wlan[0].mac.dcf packetDrop:count 17
scalar DsdvNetwork.host[1].wlan[0].mac.dcf packetDrop:sum(packetBytes) 1030
scalar DsdvNetwork.host[1].wlan[0].mac.dcf packetDropNotAddressedToUs:count 17
scalar DsdvNetwork.host[1].wlan[0].mac.dcf packetDropNotAddressedToUs:sum(packetBytes) 1030
scalar DsdvNetwork.host[1].wlan[0].mac.dcf packetDropQueueOverflow:count 0
scalar DsdvNetwork.host[1].wlan[0].mac.dcf packetDropQueueOverflow:sum(packetBytes) 0
scalar DsdvNetwork.host[1].wlan[0].mac.dcf packetDropRetryLimitReached:count 0
scalar DsdvNetwork.host[1].wlan[0].mac.dcf packetDropRetryLimitReached:sum(packetBytes) 0
scalar DsdvNetwork.host[1].wlan[0].mac.dcf linkBroken:count 0
scalar DsdvNetwork.host[1].wlan[0].mac packetReceivedFromLower:count 260
scalar DsdvNetwork.host[1].wlan[0].mac packetReceivedFromLower:sum(packetBytes) 18424
scalar DsdvNetwork.host[1].wlan[0].mac packetSentToLower:count 70
scalar DsdvNetwork.host[1].wlan[0].mac packetSentToLower:sum(packetBytes) 4916
scalar DsdvNetwork.host[1].wlan[0].mac packetReceivedFromUpper:count 62
scalar DsdvNetwork.host[1].wlan[0].mac packetReceivedFromUpper:sum(packetBytes) 3068
scalar DsdvNetwork.host[1].wlan[0].mac packetSentToUpper:count 218
scalar DsdvNetwork.host[1].wlan[0].mac packetSentToUpper:sum(packetBytes) 10028
scalar DsdvNetwork.host[1].wlan[0].mac packetDrop:count 33
scalar DsdvNetwork.host[1].wlan[0].mac packetDrop:sum(packetBytes) 2166
scalar DsdvNetwork.host[1].wlan[0].mac packetDropIncorrectlyReceived:count 16
scalar DsdvNetwork.host[1].wlan[0].mac packetDropIncorrectlyReceived:sum(packetBytes) 1136
scalar DsdvNetwork.host[1].wlan[0].mac packetDropNotAddressedToUs:count 17
scalar DsdvNetwork.host[1].wlan[0].mac packetDropNotAddressedToUs:sum(packetBytes) 1030
scalar DsdvNetwork.host[1].wlan[0].mac packetDropQueueOverflow:count 0
scalar DsdvNetwork.host[1].wlan[0].mac packetDropQueueOverflow:sum(packetBytes) 0
scalar DsdvNetwork.host[1].wlan[0].mac packetDropRetryLimitReached:count 0
scalar DsdvNetwork.host[1].wlan[0].mac packetDropRetryLimitReached:sum(packetBytes) 0
scalar DsdvNetwork.host[1].wlan[0].mac packetDropDuplicateDetected:count 0
scalar DsdvNetwork.host[1].wlan[0].mac packetDropDuplicateDetected:sum(packetBytes) 0
scalar DsdvNetwork.host[1].wlan[0].mac packetDropOther:count 0
scalar DsdvNetwork.host[1].wlan[0].mac packetDropOther:sum(packetBytes) 0
scalar DsdvNetwork.host[1].wlan[0].mac linkBroken:count 0
scalar DsdvNetwork.host[1].wlan[0].radio radioMode:count 143
scalar DsdvNetwork.host[1].wlan[0].radio receptionState:count 800
scalar DsdvNetwork.host[1].wlan[0].radio transmissionState:count 280
scalar DsdvNetwork.host[1].wlan[0] packetDropInterfaceDown:count 0
scalar DsdvNetwork.host[1].wlan[0] packetDropInterfaceDown:sum(packetBytes) 0
scalar DsdvNetwork.host[1].wlan[0] packetDropNoCarrier:count 0
scalar DsdvNetwork.host[1].wlan[0] packetDropNoCarrier:sum(packetBytes) 0
scalar DsdvNetwork.host[1].ipv4.ip packetDropAddressResolutionFailed:count 0
scalar DsdvNetwork.host[1].ipv4.ip packetDropAddressResolutionFailed:sum(packetBytes) 0
scalar DsdvNetwork.host[1].ipv4.ip packetDropHopLimitReached:count 0
scalar DsdvNetwork.host[1].ipv4.ip packetDropHopLimitReached:sum(packetBytes) 0
scalar DsdvNetwork.host[1].ipv4.ip packetDropForwardingDisabled:count 0
scalar DsdvNetwork.host[1].ipv4.ip packetDropForwardingDisabled:sum(packetBytes) 0
scalar DsdvNetwork.host[1].ipv4.ip packetDropLifetimeExpired:count 0
scalar DsdvNetwork.host[1].ipv4.ip packetDropLifetimeExpired:sum(packetBytes) 0
scalar DsdvNetwork.host[1].ipv4.ip packetDropNoInterfaceFound:count 0
scalar DsdvNetwork.host[1].ipv4.ip packetDropNoInterfaceFound:sum(packetBytes) 0
scalar DsdvNetwork.host[1].ipv4.ip packetDropNoRouteFound:count 0
scalar DsdvNetwork.host[1].ipv4.ip packetDropNoRouteFound:sum(packetBytes) 0
scalar DsdvNetwork.host[1].ipv4.ip packetDropUndefined:count 0
scalar DsdvNetwork.host[1].ipv4.ip packetDropUndefined:sum(packetBytes) 0
scalar DsdvNetwork.host[1].ipv4.arp arpResolutionFailed:count 0
scalar DsdvNetwork.host[1].ipv4.arp arpResolutionCompleted:count 5
scalar DsdvNetwork.host[1].ipv4.arp arpResolutionInitiated:count 1
scalar DsdvNetwork.host[1].ipv4.arp arpReplySent:count 2
scalar DsdvNetwork.host[1].ipv4.arp arpReplySent:sum(packetBytes) 56
scalar DsdvNetwork.host[1].ipv4.arp arpRequestSent:count 1
scalar DsdvNetwork.host[1].ipv4.arp arpRequestSent:sum(packetBytes) 28
scalar DsdvNetwork.host[1].ipv6.neighbourDiscovery dadFailed:count 0
scalar DsdvNetwork.host[1].ipv6.neighbourDiscovery dadCompleted:count 1
scalar DsdvNetwork.host[1].ipv6.neighbourDiscovery startDad:count 1
scalar DsdvNetwork.host[1].udp packetReceived:count 0
scalar DsdvNetwork.host[1].udp packetReceived:sum(packetBytes) 0
scalar DsdvNetwork.host[1].udp packetSent:count 0
scalar DsdvNetwork.host[1].udp packetSent:sum(packetBytes) 0
scalar DsdvNetwork.host[1].udp passedUpPk:count 0
scalar DsdvNetwork.host[1].udp droppedPkWrongPort:count 0
scalar DsdvNetwork.host[1].udp droppedPkBadChecksum:count 0
scalar DsdvNetwork.host[2].lo[0].lo rcvdPkFromHl:count 0
scalar DsdvNetwork.host[2].lo[0].lo rcvdPkFromHl:sum(packetBytes) 0
scalar DsdvNetwork.host[2].lo[0].lo passedUpPk:count 0
scalar DsdvNetwork.host[2].lo[0].lo passedUpPk:sum(packetBytes) 0
scalar DsdvNetwork.host[2].lo[0] packetDropInterfaceDown:count 0
scalar DsdvNetwork.host[2].lo[0] packetDropInterfaceDown:sum(packetBytes) 0
scalar DsdvNetwork.host[2].lo[0] packetDropNoCarrier:count 0
scalar DsdvNetwork.host[2].lo[0] packetDropNoCarrier:sum(packetBytes) 0
scalar DsdvNetwork.host[2].wlan[0].mac.dcf.channelAccess.pendingQueue queueLength:last 0
scalar DsdvNetwork.host[2].wlan[0].mac.dcf.channelAccess.pendingQueue queueLength:max 1
scalar DsdvNetwork.host[2].wlan[0].mac.dcf.channelAccess.pendingQueue queueLength:timeavg 0.0001525133537
scalar DsdvNetwork.host[2].wlan[0].mac.dcf.channelAccess.pendingQueue queueBitLength:last 0
scalar DsdvNetwork.host[2].wlan[0].mac.dcf.channelAccess.pendingQueue queueBitLength:max 800
scalar DsdvNetwork.host[2].wlan[0].mac.dcf.channelAccess.pendingQueue queueBitLength:timeavg 0.0878476917312
scalar DsdvNetwork.host[2].wlan[0].mac.dcf.channelAccess.pendingQueue outgoingPackets:count 41
scalar DsdvNetwork.host[2].wlan[0].mac.dcf.channelAccess.pendingQueue outgoingPacketLengths:sum 23840
scalar DsdvNetwork.host[2].wlan[0].mac.dcf.channelAccess.pendingQueue incomingPackets:count 41
scalar DsdvNetwork.host[2].wlan[0].mac.dcf.channelAccess.pendingQueue incomingPacketLengths:sum 23840
scalar DsdvNetwork.host[2].wlan[0].mac.dcf.channelAccess.pendingQueue droppedPacketsQueueOverflow:count 0
scalar DsdvNetwork.host[2].wlan[0].mac.dcf.channelAccess.pendingQueue droppedPacketLengthsQueueOverflow:sum 0
scalar DsdvNetwork.host[2].wlan[0].mac.dcf.channelAccess.inProgressFrames queueLength:max 1
scalar DsdvNetwork.host[2].wlan[0].mac.dcf.channelAccess.inProgressFrames queueLength:timeavg 0.0019792
scalar DsdvNetwork.host[2].wlan[0].mac.dcf.channelAccess.contention channelAccessGranted:count 41
scalar DsdvNetwork.host[2].wlan[0].mac.dcf.channelAccess.contention stateChanged:count 2430
scalar DsdvNetwork.host[2].wlan[0].mac.dcf.channelAccess channelOwnershipChanged:count 82
scalar DsdvNetwork.host[2].wlan[0].mac.dcf.originatorMacDataService packetAggregated:count 0
scalar DsdvNetwork.host[2].wlan[0].mac.dcf.originatorMacDataService packetFragmented:count 0
scalar DsdvNetwork.host[2].wlan[0].mac.dcf.recipientMacDataService packetDeaggregated:count 0
scalar DsdvNetwork.host[2].wlan[0].mac.dcf.recipientMacDataService packetDefragmented:count 383
scalar DsdvNetwork.host[2].wlan[0].mac.dcf.recipientMacDataService packetDropDuplicateDetected:count 0
scalar DsdvNetwork.host[2].wlan[0].mac.dcf.recipientMacDataService packetDropDuplicateDetected:sum(packetBytes) 0
scalar DsdvNetwork.host[2].wlan[0].mac.dcf.recoveryProcedure retryLimitReached:count 0
scalar DsdvNetwork.host[2].wlan[0].mac.dcf frameSequenceFinished:count 41
scalar DsdvNetwork.host[2].wlan[0].mac.dcf packetReceivedFromPeer:count 383
scalar DsdvNetwork.host[2].wlan[0].mac.dcf packetReceivedFromPeer:sum(packetBytes) 27824
scalar DsdvNetwork.host[2].wlan[0].mac.dcf packetReceivedFromPeerUnicast:count 0
scalar DsdvNetwork.host[2].wlan[0].mac.dcf packetReceivedFromPeerUnicast:sum(packetBytes) 0
scalar DsdvNetwork.host[2].wlan[0].mac.dcf packetReceivedFromPeerMulticast:count 383
scalar DsdvNetwork.host[2].wlan[0].mac.dcf packetReceivedFromPeerMulticast:sum(packetBytes) 27824
scalar DsdvNetwork.host[2].wlan[0].mac.dcf packetReceivedFromPeerBroadcast:count 373
scalar DsdvNetwork.host[2].wlan[0].mac.dcf packetReceivedFromPeerBroadcast:sum(packetBytes) 26824
scalar DsdvNetwork.host[2].wlan[0].mac.dcf packetReceivedFromPeerWithRetry:count 0
scalar DsdvNetwork.host[2].wlan[0].mac.dcf packetReceivedFromPeerWithRetry:sum(packetBytes) 0
scalar DsdvNetwork.host[2].wlan[0].mac.dcf packetReceivedFromPeerWithoutRetry:count 383
scalar DsdvNetwork.host[2].wlan[0].mac.dcf packetReceivedFromPeerWithoutRetry:sum(packetBytes) 27824
scalar DsdvNetwork.host[2].wlan[0].mac.dcf packetSentToPeer:count 41
scalar DsdvNetwork.host[2].wlan[0].mac.dcf packetSentToPeer:sum(packetBytes) 2980
scalar DsdvNetwork.host[2].wlan[0].mac.dcf packetSentToPeerUnicast:count 0
scalar DsdvNetwork.host[2].wlan[0].mac.dcf packetSentToPeerUnicast:sum(packetBytes) 0
scalar DsdvNetwork.host[2].wlan[0].mac.dcf packetSentToPeerMulticast:count 41
scalar DsdvNetwork.host[2].wlan[0].mac.dcf packetSentToPeerMulticast:sum(packetBytes) 2980
scalar DsdvNetwork.host[2].wlan[0].mac.dcf packetSentToPeerBroadcast:count 40
scalar DsdvNetwork.host[2].wlan[0].mac.dcf packetSentToPeerBroadcast:sum(packetBytes) 2880
scalar DsdvNetwork.host[2].wlan[0].mac.dcf packetSentToPeerWithRetry:count 0
scalar DsdvNetwork.host[2].wlan[0].mac.dcf packetSentToPeerWithRetry:sum(packetBytes) 0
scalar DsdvNetwork.host[2].wlan[0].mac.dcf packetSentToPeerWithoutRetry:count 41
scalar DsdvNetwork.host[2].wlan[0].mac.dcf packetSentToPeerWithoutRetry:sum(packetBytes) 2980
scalar DsdvNetwork.host[2].wlan[0].mac.dcf packetDrop:count 42
scalar DsdvNetwork.host[2].wlan[0].mac.dcf packetDrop:sum(packetBytes) 2596
scalar DsdvNetwork.host[2].wlan[0].mac.dcf packetDropNotAddressedToUs:count 42
scalar DsdvNetwork.host[2].wlan[0].mac.dcf packetDropNotAddressedToUs:sum(packetBytes) 2596
scalar DsdvNetwork.host[2].wlan[0].mac.dcf packetDropQueueOverflow:count 0
scalar DsdvNetwork.host[2].wlan[0].mac.dcf packetDropQueueOverflow:sum(packetBytes) 0
scalar DsdvNetwork.host[2].wlan[0].mac.dcf packetDropRetryLimitReached:count 0
scalar DsdvNetwork.host[2].wlan[0].mac.dcf packetDropRetryLimitReached:sum(packetBytes) 0
scalar DsdvNetwork.host[2].wlan[0].mac.dcf linkBroken:count 0
scalar DsdvNetwork.host[2].wlan[0].mac packetReceivedFromLower:count 475
scalar DsdvNetwork.host[2].wlan[0].mac packetReceivedFromLower:sum(packetBytes) 33880
scalar DsdvNetwork.host[2].wlan[0].mac packetSentToLower:count 41
scalar DsdvNetwork.host[2].wlan[0].mac packetSentToLower:sum(packetBytes) 2980
scalar DsdvNetwork.host[2].wlan[0].mac packetReceivedFromUpper:count 41
scalar DsdvNetwork.host[2].wlan[0].mac packetReceivedFromUpper:sum(packetBytes) 1832
scalar DsdvNetwork.host[2].wlan[0].mac packetSentToUpper:count 383
scalar DsdvNetwork.host[2].wlan[0].mac packetSentToUpper:sum(packetBytes) 17100
scalar DsdvNetwork.host[2].wlan[0].mac packetDrop:count 92
scalar DsdvNetwork.host[2].wlan[0].mac packetDrop:sum(packetBytes) 6056
scalar DsdvNetwork.host[2].wlan[0].mac packetDropIncorrectlyReceived:count 50
scalar DsdvNetwork.host[2].wlan[0].mac packetDropIncorrectlyReceived:sum(packetBytes) 3460
scalar DsdvNetwork.host[2].wlan[0].mac packetDropNotAddressedToUs:count 42
scalar DsdvNetwork.host[2].wlan[0].mac packetDropNotAddressedToUs:sum(packetBytes) 2596
scalar DsdvNetwork.host[2].wlan[0].mac packetDropQueueOverflow:count 0
scalar DsdvNetwork.host[2].wlan[0].mac packetDropQueueOverflow:sum(packetBytes) 0
scalar DsdvNetwork.host[2].wlan[0].mac packetDropRetryLimitReached:count 0
scalar DsdvNetwork.host[2].wlan[0].mac packetDropRetryLimitReached:sum(packetBytes) 0
scalar DsdvNetwork.host[2].wlan[0].mac packetDropDuplicateDetected:count 0
scalar DsdvNetwork.host[2].wlan[0].mac packetDropDuplicateDetected:sum(packetBytes) 0
scalar DsdvNetwork.host[2].wlan[0].mac packetDropOther:count 0
scalar DsdvNetwork.host[2].wlan[0].mac packetDropOther:sum(packetBytes) 0
scalar DsdvNetwork.host[2].wlan[0].mac linkBroken:count 0
scalar DsdvNetwork.host[2].wlan[0].radio radioMode:count 85
scalar DsdvNetwork.host[2].wlan[0].radio receptionState:count 1073
scalar DsdvNetwork.host[2].wlan[0].radio transmissionState:count 164
scalar DsdvNetwork.host[2].wlan[0] packetDropInterfaceDown:count 0
scalar DsdvNetwork.host[2].wlan[0] packetDropInterfaceDown:sum(packetBytes) 0
scalar DsdvNetwork.host[2].wlan[0] packetDropNoCarrier:count 0
scalar DsdvNetwork.host[2].wlan[0] packetDropNoCarrier:sum(packetBytes) 0
scalar DsdvNetwork.host[2].ipv4.ip packetDropAddressResolutionFailed:count 0
scalar DsdvNetwork.host[2].ipv4.ip packetDropAddressResolutionFailed:sum(packetBytes) 0
scalar DsdvNetwork.host[2].ipv4.ip packetDropHopLimitReached:count 0
scalar DsdvNetwork.host[2].ipv4.ip packetDropHopLimitReached:sum(packetBytes) 0
scalar DsdvNetwork.host[2].ipv4.ip packetDropForwardingDisabled:count 0
scalar DsdvNetwork.host[2].ipv4.ip packetDropForwardingDisabled:sum(packetBytes) 0
scalar DsdvNetwork.host[2].ipv4.ip packetDropLifetimeExpired:count 0
scalar DsdvNetwork.host[2].ipv4.ip packetDropLifetimeExpired:sum(packetBytes) 0
scalar DsdvNetwork.host[2].ipv4.ip packetDropNoInterfaceFound:count 0
scalar DsdvNetwork.host[2].ipv4.ip packetDropNoInterfaceFound:sum(packetBytes) 0
scalar DsdvNetwork.host[2].ipv4.ip packetDropNoRouteFound:count 0
scalar DsdvNetwork.host[2].ipv4.ip packetDropNoRouteFound:sum(packetBytes) 0
scalar DsdvNetwork.host[2].ipv4.ip packetDropUndefined:count 0
scalar DsdvNetwork.host[2].ipv4.ip packetDropUndefined:sum(packetBytes) 0
scalar DsdvNetwork.host[2].ipv4.arp arpResolutionFailed:count 0
scalar DsdvNetwork.host[2].ipv4.arp arpResolutionCompleted:count 0
scalar DsdvNetwork.host[2].ipv4.arp arpResolutionInitiated:count 0
scalar DsdvNetwork.host[2].ipv4.arp arpReplySent:count 0
scalar DsdvNetwork.host[2].ipv4.arp arpReplySent:sum(packetBytes) 0
scalar DsdvNetwork.host[2].ipv4.arp arpRequestSent:count 0
scalar DsdvNetwork.host[2].ipv4.arp arpRequestSent:sum(packetBytes) 0
scalar DsdvNetwork.host[2].ipv6.neighbourDiscovery dadFailed:count 0
scalar DsdvNetwork.host[2].ipv6.neighbourDiscovery dadCompleted:count 1
scalar DsdvNetwork.host[2].ipv6.neighbourDiscovery startDad:count 1
scalar DsdvNetwork.host[2].udp packetReceived:count 0
scalar DsdvNetwork.host[2].udp packetReceived:sum(packetBytes) 0
scalar DsdvNetwork.host[2].udp packetSent:count 0
scalar DsdvNetwork.host[2].udp packetSent:sum(packetBytes) 0
scalar DsdvNetwork.host[2].udp passedUpPk:count 0
scalar DsdvNetwork.host[2].udp droppedPkWrongPort:count 0
scalar DsdvNetwork.host[2].udp droppedPkBadChecksum:count 0
scalar DsdvNetwork.host[3].lo[0].lo rcvdPkFromHl:count 0
scalar DsdvNetwork.host[3].lo[0].lo rcvdPkFromHl:sum(packetBytes) 0
scalar DsdvNetwork.host[3].lo[0].lo passedUpPk:count 0
scalar DsdvNetwork.host[3].lo[0].lo passedUpPk:sum(packetBytes) 0
scalar DsdvNetwork.host[3].lo[0] packetDropInterfaceDown:count 0
scalar DsdvNetwork.host[3].lo[0] packetDropInterfaceDown:sum(packetBytes) 0
scalar DsdvNetwork.host[3].lo[0] packetDropNoCarrier:count 0
scalar DsdvNetwork.host[3].lo[0] packetDropNoCarrier:sum(packetBytes) 0
scalar DsdvNetwork.host[3].wlan[0].mac.dcf.channelAccess.pendingQueue queueLength:last 0
scalar DsdvNetwork.host[3].wlan[0].mac.dcf.channelAccess.pendingQueue queueLength:max 1
scalar DsdvNetwork.host[3].wlan[0].mac.dcf.channelAccess.pendingQueue queueLength:timeavg 0.00044124215829999995
scalar DsdvNetwork.host[3].wlan[0].mac.dcf.channelAccess.pendingQueue queueBitLength:last 0
scalar DsdvNetwork.host[3].wlan[0].mac.dcf.channelAccess.pendingQueue queueBitLength:max 800
scalar DsdvNetwork.host[3].wlan[0].mac.dcf.channelAccess.pendingQueue queueBitLength:timeavg 0.2541554831808
scalar DsdvNetwork.host[3].wlan[0].mac.dcf.channelAccess.pendingQueue outgoingPackets:count 43
scalar DsdvNetwork.host[3].wlan[0].mac.dcf.channelAccess.pendingQueue outgoingPacketLengths:sum 24992
scalar DsdvNetwork.host[3].wlan[0].mac.dcf.channelAccess.pendingQueue incomingPackets:count 43
scalar DsdvNetwork.host[3].wlan[0].mac.dcf.channelAccess.pendingQueue incomingPacketLengths:sum 24992
scalar DsdvNetwork.host[3].wlan[0].mac.dcf.channelAccess.pendingQueue droppedPacketsQueueOverflow:count 0
scalar DsdvNetwork.host[3].wlan[0].mac.dcf.channelAccess.pendingQueue droppedPacketLengthsQueueOverflow:sum 0
scalar DsdvNetwork.host[3].wlan[0].mac.dcf.channelAccess.inProgressFrames queueLength:max 1
scalar DsdvNetwork.host[3].wlan[0].mac.dcf.channelAccess.inProgressFrames queueLength:timeavg 0.0020752
scalar DsdvNetwork.host[3].wlan[0].mac.dcf.channelAccess.contention channelAccessGranted:count 43
scalar DsdvNetwork.host[3].wlan[0].mac.dcf.channelAccess.contention stateChanged:count 2840
scalar DsdvNetwork.host[3].wlan[0].mac.dcf.channelAccess channelOwnershipChanged:count 86
scalar DsdvNetwork.host[3].wlan[0].mac.dcf.originatorMacDataService packetAggregated:count 0
scalar DsdvNetwork.host[3].wlan[0].mac.dcf.originatorMacDataService packetFragmented:count 0
scalar DsdvNetwork.host[3].wlan[0].mac.dcf.recipientMacDataService packetDeaggregated:count 0
scalar DsdvNetwork.host[3].wlan[0].mac.dcf.recipientMacDataService packetDefragmented:count 454
scalar DsdvNetwork.host[3].wlan[0].mac.dcf.recipientMacDataService packetDropDuplicateDetected:count 0
scalar DsdvNetwork.host[3].wlan[0].mac.dcf.recipientMacDataService packetDropDuplicateDetected:sum(packetBytes) 0
scalar DsdvNetwork.host[3].wlan[0].mac.dcf.recoveryProcedure retryLimitReached:count 0
scalar DsdvNetwork.host[3].wlan[0].mac.dcf frameSequenceFinished:count 43
scalar DsdvNetwork.host[3].wlan[0].mac.dcf packetReceivedFromPeer:count 454
scalar DsdvNetwork.host[3].wlan[0].mac.dcf packetReceivedFromPeer:sum(packetBytes) 32948
scalar DsdvNetwork.host[3].wlan[0].mac.dcf packetReceivedFromPeerUnicast:count 0
scalar DsdvNetwork.host[3].wlan[0].mac.dcf packetReceivedFromPeerUnicast:sum(packetBytes) 0
scalar DsdvNetwork.host[3].wlan[0].mac.dcf packetReceivedFromPeerMulticast:count 454
scalar DsdvNetwork.host[3].wlan[0].mac.dcf packetReceivedFromPeerMulticast:sum(packetBytes) 32948
scalar DsdvNetwork.host[3].wlan[0].mac.dcf packetReceivedFromPeerBroadcast:count 443
scalar DsdvNetwork.host[3].wlan[0].mac.dcf packetReceivedFromPeerBroadcast:sum(packetBytes) 31848
scalar DsdvNetwork.host[3].wlan[0].mac.dcf packetReceivedFromPeerWithRetry:count 0
scalar DsdvNetwork.host[3].wlan[0].mac.dcf packetReceivedFromPeerWithRetry:sum(packetBytes) 0
scalar DsdvNetwork.host[3].wlan[0].mac.dcf packetReceivedFromPeerWithoutRetry:count 454
scalar DsdvNetwork.host[3].wlan[0].mac.dcf packetReceivedFromPeerWithoutRetry:sum(packetBytes) 32948
scalar DsdvNetwork.host[3].wlan[0].mac.dcf packetSentToPeer:count 43
scalar DsdvNetwork.host[3].wlan[0].mac.dcf packetSentToPeer:sum(packetBytes) 3124
scalar DsdvNetwork.host[3].wlan[0].mac.dcf packetSentToPeerUnicast:count 0
scalar DsdvNetwork.host[3].wlan[0].mac.dcf packetSentToPeerUnicast:sum(packetBytes) 0
scalar DsdvNetwork.host[3].wlan[0].mac.dcf packetSentToPeerMulticast:count 43
scalar DsdvNetwork.host[3].wlan[0].mac.dcf packetSentToPeerMulticast:sum(packetBytes) 3124
scalar DsdvNetwork.host[3].wlan[0].mac.dcf packetSentToPeerBroadcast:count 42
scalar DsdvNetwork.host[3].wlan[0].mac.dcf packetSentToPeerBroadcast:sum(packetBytes) 3024
scalar DsdvNetwork.host[3].wlan[0].mac.dcf packetSentToPeerWithRetry:count 0
scalar DsdvNetwork.host[3].wlan[0].mac.dcf packetSentToPeerWithRetry:sum(packetBytes) 0
scalar DsdvNetwork.host[3].wlan[0].mac.dcf packetSentToPeerWithoutRetry:count 43
scalar DsdvNetwork.host[3].wlan[0].mac.dcf packetSentToPeerWithoutRetry:sum(packetBytes) 3124
scalar DsdvNetwork.host[3].wlan[0].mac.dcf packetDrop:count 70
scalar DsdvNetwork.host[3].wlan[0].mac.dcf packetDrop:sum(packetBytes) 4410
scalar DsdvNetwork.host[3].wlan[0].mac.dcf packetDropNotAddressedToUs:count 70
scalar DsdvNetwork.host[3].wlan[0].mac.dcf packetDropNotAddressedToUs:sum(packetBytes) 4410
scalar DsdvNetwork.host[3].wlan[0].mac.dcf packetDropQueueOverflow:count 0
scalar DsdvNetwork.host[3].wlan[0].mac.dcf packetDropQueueOverflow:sum(packetBytes) 0
scalar DsdvNetwork.host[3].wlan[0].mac.dcf packetDropRetryLimitReached:count 0
scalar DsdvNetwork.host[3].wlan[0].mac.dcf packetDropRetryLimitReached:sum(packetBytes) 0
scalar DsdvNetwork.host[3].wlan[0].mac.dcf linkBroken:count 0
scalar DsdvNetwork.host[3].wlan[0].mac packetReceivedFromLower:count 587
scalar DsdvNetwork.host[3].wlan[0].mac packetReceivedFromLower:sum(packetBytes) 41782
scalar DsdvNetwork.host[3].wlan[0].mac packetSentToLower:count 43
scalar DsdvNetwork.host[3].wlan[0].mac packetSentToLower:sum(packetBytes) 3124
scalar DsdvNetwork.host[3].wlan[0].mac packetReceivedFromUpper:count 43
scalar DsdvNetwork.host[3].wlan[0].mac packetReceivedFromUpper:sum(packetBytes) 1920
scalar DsdvNetwork.host[3].wlan[0].mac packetSentToUpper:count 454
scalar DsdvNetwork.host[3].wlan[0].mac packetSentToUpper:sum(packetBytes) 20236
scalar DsdvNetwork.host[3].wlan[0].mac packetDrop:count 133
scalar DsdvNetwork.host[3].wlan[0].mac packetDrop:sum(packetBytes) 8834
scalar DsdvNetwork.host[3].wlan[0].mac packetDropIncorrectlyReceived:count 63
scalar DsdvNetwork.host[3].wlan[0].mac packetDropIncorrectlyReceived:sum(packetBytes) 4424
scalar DsdvNetwork.host[3].wlan[0].mac packetDropNotAddressedToUs:count 70
scalar DsdvNetwork.host[3].wlan[0].mac packetDropNotAddressedToUs:sum(packetBytes) 4410
scalar DsdvNetwork.host[3].wlan[0].mac packetDropQueueOverflow:count 0
scalar DsdvNetwork.host[3].wlan[0].mac packetDropQueueOverflow:sum(packetBytes) 0
scalar DsdvNetwork.host[3].wlan[0].mac packetDropRetryLimitReached:count 0
scalar DsdvNetwork.host[3].wlan[0].mac packetDropRetryLimitReached:sum(packetBytes) 0
scalar DsdvNetwork.host[3].wlan[0].mac packetDropDuplicateDetected:count 0
scalar DsdvNetwork.host[3].wlan[0].mac packetDropDuplicateDetected:sum(packetBytes) 0
scalar DsdvNetwork.host[3].wlan[0].mac packetDropOther:count 0
scalar DsdvNetwork.host[3].wlan[0].mac packetDropOther:sum(packetBytes) 0
scalar DsdvNetwork.host[3].wlan[0].mac linkBroken:count 0
scalar DsdvNetwork.host[3].wlan[0].radio radioMode:count 89
scalar DsdvNetwork.host[3].wlan[0].radio receptionState:count 1291
scalar DsdvNetwork.host[3].wlan[0].radio transmissionState:count 172
scalar DsdvNetwork.host[3].wlan[0] packetDropInterfaceDown:count 0
scalar DsdvNetwork.host[3].wlan[0] packetDropInterfaceDown:sum(packetBytes) 0
scalar DsdvNetwork.host[3].wlan[0] packetDropNoCarrier:count 0
scalar DsdvNetwork.host[3].wlan[0] packetDropNoCarrier:sum(packetBytes) 0
scalar DsdvNetwork.host[3].ipv4.ip packetDropAddressResolutionFailed:count 0
scalar DsdvNetwork.host[3].ipv4.ip packetDropAddressResolutionFailed:sum(packetBytes) 0
scalar DsdvNetwork.host[3].ipv4.ip packetDropHopLimitReached:count 0
scalar DsdvNetwork.host[3].ipv4.ip packetDropHopLimitReached:sum(packetBytes) 0
scalar DsdvNetwork.host[3].ipv4.ip packetDropForwardingDisabled:count 0
scalar DsdvNetwork.host[3].ipv4.ip packetDropForwardingDisabled:sum(packetBytes) 0
scalar DsdvNetwork.host[3].ipv4.ip packetDropLifetimeExpired:count 0
scalar DsdvNetwork.host[3].ipv4.ip packetDropLifetimeExpired:sum(packetBytes) 0
scalar DsdvNetwork.host[3].ipv4.ip packetDropNoInterfaceFound:count 0
scalar DsdvNetwork.host[3].ipv4.ip packetDropNoInterfaceFound:sum(packetBytes) 0
scalar DsdvNetwork.host[3].ipv4.ip packetDropNoRouteFound:count 0
scalar DsdvNetwork.host[3].ipv4.ip packetDropNoRouteFound:sum(packetBytes) 0
scalar DsdvNetwork.host[3].ipv4.ip packetDropUndefined:count 0
scalar DsdvNetwork.host[3].ipv4.ip packetDropUndefined:sum(packetBytes) 0
scalar DsdvNetwork.host[3].ipv4.arp arpResolutionFailed:count 0
scalar DsdvNetwork.host[3].ipv4.arp arpResolutionCompleted:count 0
scalar DsdvNetwork.host[3].ipv4.arp arpResolutionInitiated:count 0
scalar DsdvNetwork.host[3].ipv4.arp arpReplySent:count 0
scalar DsdvNetwork.host[3].ipv4.arp arpReplySent:sum(packetBytes) 0
scalar DsdvNetwork.host[3].ipv4.arp arpRequestSent:count 0
scalar DsdvNetwork.host[3].ipv4.arp arpRequestSent:sum(packetBytes) 0
scalar DsdvNetwork.host[3].ipv6.neighbourDiscovery dadFailed:count 0
scalar DsdvNetwork.host[3].ipv6.neighbourDiscovery dadCompleted:count 1
scalar DsdvNetwork.host[3].ipv6.neighbourDiscovery startDad:count 1
scalar DsdvNetwork.host[3].udp packetReceived:count 0
scalar DsdvNetwork.host[3].udp packetReceived:sum(packetBytes) 0
scalar DsdvNetwork.host[3].udp packetSent:count 0
scalar DsdvNetwork.host[3].udp packetSent:sum(packetBytes) 0
scalar DsdvNetwork.host[3].udp passedUpPk:count 0
scalar DsdvNetwork.host[3].udp droppedPkWrongPort:count 0
scalar DsdvNetwork.host[3].udp droppedPkBadChecksum:count 0
scalar DsdvNetwork.host[4].lo[0].lo rcvdPkFromHl:count 0
scalar DsdvNetwork.host[4].lo[0].lo rcvdPkFromHl:sum(packetBytes) 0
scalar DsdvNetwork.host[4].lo[0].lo passedUpPk:count 0
scalar DsdvNetwork.host[4].lo[0].lo passedUpPk:sum(packetBytes) 0
scalar DsdvNetwork.host[4].lo[0] packetDropInterfaceDown:count 0
scalar DsdvNetwork.host[4].lo[0] packetDropInterfaceDown:sum(packetBytes) 0
scalar DsdvNetwork.host[4].lo[0] packetDropNoCarrier:count 0
scalar DsdvNetwork.host[4].lo[0] packetDropNoCarrier:sum(packetBytes) 0
scalar DsdvNetwork.host[4].wlan[0].mac.dcf.channelAccess.pendingQueue queueLength:last 0
scalar DsdvNetwork.host[4].wlan[0].mac.dcf.channelAccess.pendingQueue queueLength:max 1
scalar DsdvNetwork.host[4].wlan[0].mac.dcf.channelAccess.pendingQueue queueLength:timeavg 0.0003309709245
scalar DsdvNetwork.host[4].wlan[0].mac.dcf.channelAccess.pendingQueue queueBitLength:last 0
scalar DsdvNetwork.host[4].wlan[0].mac.dcf.channelAccess.pendingQueue queueBitLength:max 960
scalar DsdvNetwork.host[4].wlan[0].mac.dcf.channelAccess.pendingQueue queueBitLength:timeavg 0.23278965251199998
scalar DsdvNetwork.host[4].wlan[0].mac.dcf.channelAccess.pendingQueue outgoingPackets:count 49
scalar DsdvNetwork.host[4].wlan[0].mac.dcf.channelAccess.pendingQueue outgoingPacketLengths:sum 29472
scalar DsdvNetwork.host[4].wlan[0].mac.dcf.channelAccess.pendingQueue incomingPackets:count 49
scalar DsdvNetwork.host[4].wlan[0].mac.dcf.channelAccess.pendingQueue incomingPacketLengths:sum 29472
scalar DsdvNetwork.host[4].wlan[0].mac.dcf.channelAccess.pendingQueue droppedPacketsQueueOverflow:count 0
scalar DsdvNetwork.host[4].wlan[0].mac.dcf.channelAccess.pendingQueue droppedPacketLengthsQueueOverflow:sum 0
scalar DsdvNetwork.host[4].wlan[0].mac.dcf.channelAccess.inProgressFrames queueLength:max 1
scalar DsdvNetwork.host[4].wlan[0].mac.dcf.channelAccess.inProgressFrames queueLength:timeavg 0.0025181437778000002
scalar DsdvNetwork.host[4].wlan[0].mac.dcf.channelAccess.contention channelAccessGranted:count 49
scalar DsdvNetwork.host[4].wlan[0].mac.dcf.channelAccess.contention stateChanged:count 2042
scalar DsdvNetwork.host[4].wlan[0].mac.dcf.channelAccess channelOwnershipChanged:count 98
scalar DsdvNetwork.host[4].wlan[0].mac.dcf.originatorMacDataService packetAggregated:count 0
scalar DsdvNetwork.host[4].wlan[0].mac.dcf.originatorMacDataService packetFragmented:count 0
scalar DsdvNetwork.host[4].wlan[0].mac.dcf.recipientMacDataService packetDeaggregated:count 0
scalar DsdvNetwork.host[4].wlan[0].mac.dcf.recipientMacDataService packetDefragmented:count 307
scalar DsdvNetwork.host[4].wlan[0].mac.dcf.recipientMacDataService packetDropDuplicateDetected:count 0
scalar DsdvNetwork.host[4].wlan[0].mac.dcf.recipientMacDataService packetDropDuplicateDetected:sum(packetBytes) 0
scalar DsdvNetwork.host[4].wlan[0].mac.dcf.recoveryProcedure retryLimitReached:count 0
scalar DsdvNetwork.host[4].wlan[0].mac.dcf frameSequenceFinished:count 49
scalar DsdvNetwork.host[4].wlan[0].mac.dcf packetReceivedFromPeer:count 311
scalar DsdvNetwork.host[4].wlan[0].mac.dcf packetReceivedFromPeer:sum(packetBytes) 22436
scalar DsdvNetwork.host[4].wlan[0].mac.dcf packetReceivedFromPeerUnicast:count 8
scalar DsdvNetwork.host[4].wlan[0].mac.dcf packetReceivedFromPeerUnicast:sum(packetBytes) 480
scalar DsdvNetwork.host[4].wlan[0].mac.dcf packetReceivedFromPeerMulticast:count 303
scalar DsdvNetwork.host[4].wlan[0].mac.dcf packetReceivedFromPeerMulticast:sum(packetBytes) 21956
scalar DsdvNetwork.host[4].wlan[0].mac.dcf packetReceivedFromPeerBroadcast:count 296
scalar DsdvNetwork.host[4].wlan[0].mac.dcf packetReceivedFromPeerBroadcast:sum(packetBytes) 21256
scalar DsdvNetwork.host[4].wlan[0].mac.dcf packetReceivedFromPeerWithRetry:count 0
scalar DsdvNetwork.host[4].wlan[0].mac.dcf packetReceivedFromPeerWithRetry:sum(packetBytes) 0
scalar DsdvNetwork.host[4].wlan[0].mac.dcf packetReceivedFromPeerWithoutRetry:count 311
scalar DsdvNetwork.host[4].wlan[0].mac.dcf packetReceivedFromPeerWithoutRetry:sum(packetBytes) 22436
scalar DsdvNetwork.host[4].wlan[0].mac.dcf packetSentToPeer:count 53
scalar DsdvNetwork.host[4].wlan[0].mac.dcf packetSentToPeer:sum(packetBytes) 3740
scalar DsdvNetwork.host[4].wlan[0].mac.dcf packetSentToPeerUnicast:count 8
scalar DsdvNetwork.host[4].wlan[0].mac.dcf packetSentToPeerUnicast:sum(packetBytes) 480
scalar DsdvNetwork.host[4].wlan[0].mac.dcf packetSentToPeerMulticast:count 45
scalar DsdvNetwork.host[4].wlan[0].mac.dcf packetSentToPeerMulticast:sum(packetBytes) 3260
scalar DsdvNetwork.host[4].wlan[0].mac.dcf packetSentToPeerBroadcast:count 44
scalar DsdvNetwork.host[4].wlan[0].mac.dcf packetSentToPeerBroadcast:sum(packetBytes) 3160
scalar DsdvNetwork.host[4].wlan[0].mac.dcf packetSentToPeerWithRetry:count 0
scalar DsdvNetwork.host[4].wlan[0].mac.dcf packetSentToPeerWithRetry:sum(packetBytes) 0
scalar DsdvNetwork.host[4].wlan[0].mac.dcf packetSentToPeerWithoutRetry:count 53
scalar DsdvNetwork.host[4].wlan[0].mac.dcf packetSentToPeerWithoutRetry:sum(packetBytes) 3740
scalar DsdvNetwork.host[4].wlan[0].mac.dcf packetDrop:count 60
scalar DsdvNetwork.host[4].wlan[0].mac.dcf packetDrop:sum(packetBytes) 3690
scalar DsdvNetwork.host[4].wlan[0].mac.dcf packetDropNotAddressedToUs:count 60
scalar DsdvNetwork.host[4].wlan[0].mac.dcf packetDropNotAddressedToUs:sum(packetBytes) 3690
scalar DsdvNetwork.host[4].wlan[0].mac.dcf packetDropQueueOverflow:count 0
scalar DsdvNetwork.host[4].wlan[0].mac.dcf packetDropQueueOverflow:sum(packetBytes) 0
scalar DsdvNetwork.host[4].wlan[0].mac.dcf packetDropRetryLimitReached:count 0
scalar DsdvNetwork.host[4].wlan[0].mac.dcf packetDropRetryLimitReached:sum(packetBytes) 0
scalar DsdvNetwork.host[4].wlan[0].mac.dcf linkBroken:count 0
scalar DsdvNetwork.host[4].wlan[0].mac packetReceivedFromLower:count 387
scalar DsdvNetwork.host[4].wlan[0].mac packetReceivedFromLower:sum(packetBytes) 27204
scalar DsdvNetwork.host[4].wlan[0].mac packetSentToLower:count 53
scalar DsdvNetwork.host[4].wlan[0].mac packetSentToLower:sum(packetBytes) 3740
scalar DsdvNetwork.host[4].wlan[0].mac packetReceivedFromUpper:count 49
scalar DsdvNetwork.host[4].wlan[0].mac packetReceivedFromUpper:sum(packetBytes) 2312
scalar DsdvNetwork.host[4].wlan[0].mac packetSentToUpper:count 307
scalar DsdvNetwork.host[4].wlan[0].mac packetSentToUpper:sum(packetBytes) 13784
scalar DsdvNetwork.host[4].wlan[0].mac packetDrop:count 76
scalar DsdvNetwork.host[4].wlan[0].mac packetDrop:sum(packetBytes) 4768
scalar DsdvNetwork.host[4].wlan[0].mac packetDropIncorrectlyReceived:count 16
scalar DsdvNetwork.host[4].wlan[0].mac packetDropIncorrectlyReceived:sum(packetBytes) 1078
scalar DsdvNetwork.host[4].wlan[0].mac packetDropNotAddressedToUs:count 60
scalar DsdvNetwork.host[4].wlan[0].mac packetDropNotAddressedToUs:sum(packetBytes) 3690
scalar DsdvNetwork.host[4].wlan[0].mac packetDropQueueOverflow:count 0
scalar DsdvNetwork.host[4].wlan[0].mac packetDropQueueOverflow:sum(packetBytes) 0
scalar DsdvNetwork.host[4].wlan[0].mac packetDropRetryLimitReached:count 0
scalar DsdvNetwork.host[4].wlan[0].mac packetDropRetryLimitReached:sum(packetBytes) 0
scalar DsdvNetwork.host[4].wlan[0].mac packetDropDuplicateDetected:count 0
scalar DsdvNetwork.host[4].wlan[0].mac packetDropDuplicateDetected:sum(packetBytes) 0
scalar DsdvNetwork.host[4].wlan[0].mac packetDropOther:count 0
scalar DsdvNetwork.host[4].wlan[0].mac packetDropOther:sum(packetBytes) 0
scalar DsdvNetwork.host[4].wlan[0].mac linkBroken:count 0
scalar DsdvNetwork.host[4].wlan[0].radio radioMode:count 109
scalar DsdvNetwork.host[4].wlan[0].radio receptionState:count 906
scalar DsdvNetwork.host[4].wlan[0].radio transmissionState:count 212
scalar DsdvNetwork.host[4].wlan[0] packetDropInterfaceDown:count 0
scalar DsdvNetwork.host[4].wlan[0] packetDropInterfaceDown:sum(packetBytes) 0
scalar DsdvNetwork.host[4].wlan[0] packetDropNoCarrier:count 0
scalar DsdvNetwork.host[4].wlan[0] packetDropNoCarrier:sum(packetBytes) 0
scalar DsdvNetwork.host[4].ipv4.ip packetDropAddressResolutionFailed:count 0
scalar DsdvNetwork.host[4].ipv4.ip packetDropAddressResolutionFailed:sum(packetBytes) 0
scalar DsdvNetwork.host[4].ipv4.ip packetDropHopLimitReached:count 0
scalar DsdvNetwork.host[4].ipv4.ip packetDropHopLimitReached:sum(packetBytes) 0
scalar DsdvNetwork.host[4].ipv4.ip packetDropForwardingDisabled:count 0
scalar DsdvNetwork.host[4].ipv4.ip packetDropForwardingDisabled:sum(packetBytes) 0
scalar DsdvNetwork.host[4].ipv4.ip packetDropLifetimeExpired:count 0
scalar DsdvNetwork.host[4].ipv4.ip packetDropLifetimeExpired:sum(packetBytes) 0
scalar DsdvNetwork.host[4].ipv4.ip packetDropNoInterfaceFound:count 0
scalar DsdvNetwork.host[4].ipv4.ip packetDropNoInterfaceFound:sum(packetBytes) 0
scalar DsdvNetwork.host[4].ipv4.ip packetDropNoRouteFound:count 0
scalar DsdvNetwork.host[4].ipv4.ip packetDropNoRouteFound:sum(packetBytes) 0
scalar DsdvNetwork.host[4].ipv4.ip packetDropUndefined:count 0
scalar DsdvNetwork.host[4].ipv4.ip packetDropUndefined:sum(packetBytes) 0
scalar DsdvNetwork.host[4].ipv4.arp arpResolutionFailed:count 0
scalar DsdvNetwork.host[4].ipv4.arp arpResolutionCompleted:count 3
scalar DsdvNetwork.host[4].ipv4.arp arpResolutionInitiated:count 1
scalar DsdvNetwork.host[4].ipv4.arp arpReplySent:count 1
scalar DsdvNetwork.host[4].ipv4.arp arpReplySent:sum(packetBytes) 28
scalar DsdvNetwork.host[4].ipv4.arp arpRequestSent:count 1
scalar DsdvNetwork.host[4].ipv4.arp arpRequestSent:sum(packetBytes) 28
scalar DsdvNetwork.host[4].ipv6.neighbourDiscovery dadFailed:count 0
scalar DsdvNetwork.host[4].ipv6.neighbourDiscovery dadCompleted:count 1
scalar DsdvNetwork.host[4].ipv6.neighbourDiscovery startDad:count 1
scalar DsdvNetwork.host[4].udp packetReceived:count 0
scalar DsdvNetwork.host[4].udp packetReceived:sum(packetBytes) 0
scalar DsdvNetwork.host[4].udp packetSent:count 0
scalar DsdvNetwork.host[4].udp packetSent:sum(packetBytes) 0
scalar DsdvNetwork.host[4].udp passedUpPk:count 0
scalar DsdvNetwork.host[4].udp droppedPkWrongPort:count 0
scalar DsdvNetwork.host[4].udp droppedPkBadChecksum:count 0
scalar DsdvNetwork.host[5].lo[0].lo rcvdPkFromHl:count 0
scalar DsdvNetwork.host[5].lo[0].lo rcvdPkFromHl:sum(packetBytes) 0
scalar DsdvNetwork.host[5].lo[0].lo passedUpPk:count 0
scalar DsdvNetwork.host[5].lo[0].lo passedUpPk:sum(packetBytes) 0
scalar DsdvNetwork.host[5].lo[0] packetDropInterfaceDown:count 0
scalar DsdvNetwork.host[5].lo[0] packetDropInterfaceDown:sum(packetBytes) 0
scalar DsdvNetwork.host[5].lo[0] packetDropNoCarrier:count 0
scalar DsdvNetwork.host[5].lo[0] packetDropNoCarrier:sum(packetBytes) 0
scalar DsdvNetwork.host[5].wlan[0].mac.dcf.channelAccess.pendingQueue queueLength:last 0
scalar DsdvNetwork.host[5].wlan[0].mac.dcf.channelAccess.pendingQueue queueLength:max 1
scalar DsdvNetwork.host[5].wlan[0].mac.dcf.channelAccess.pendingQueue queueLength:timeavg 9.524711769999999e-05
scalar DsdvNetwork.host[5].wlan[0].mac.dcf.channelAccess.pendingQueue queueBitLength:last 0
scalar DsdvNetwork.host[5].wlan[0].mac.dcf.channelAccess.pendingQueue queueBitLength:max 800
scalar DsdvNetwork.host[5].wlan[0].mac.dcf.channelAccess.pendingQueue queueBitLength:timeavg 0.0548623397952
scalar DsdvNetwork.host[5].wlan[0].mac.dcf.channelAccess.pendingQueue outgoingPackets:count 49
scalar DsdvNetwork.host[5].wlan[0].mac.dcf.channelAccess.pendingQueue outgoingPacketLengths:sum 28448
scalar DsdvNetwork.host[5].wlan[0].mac.dcf.channelAccess.pendingQueue incomingPackets:count 49
scalar DsdvNetwork.host[5].wlan[0].mac.dcf.channelAccess.pendingQueue incomingPacketLengths:sum 28448
scalar DsdvNetwork.host[5].wlan[0].mac.dcf.channelAccess.pendingQueue droppedPacketsQueueOverflow:count 0
scalar DsdvNetwork.host[5].wlan[0].mac.dcf.channelAccess.pendingQueue droppedPacketLengthsQueueOverflow:sum 0
scalar DsdvNetwork.host[5].wlan[0].mac.dcf.channelAccess.inProgressFrames queueLength:max 1
scalar DsdvNetwork.host[5].wlan[0].mac.dcf.channelAccess.inProgressFrames queueLength:timeavg 0.0023632
scalar DsdvNetwork.host[5].wlan[0].mac.dcf.channelAccess.contention channelAccessGranted:count 49
scalar DsdvNetwork.host[5].wlan[0].mac.dcf.channelAccess.contention stateChanged:count 1354
scalar DsdvNetwork.host[5].wlan[0].mac.dcf.channelAccess channelOwnershipChanged:count 98
scalar DsdvNetwork.host[5].wlan[0].mac.dcf.originatorMacDataService packetAggregated:count 0
scalar DsdvNetwork.host[5].wlan[0].mac.dcf.originatorMacDataService packetFragmented:count 0
scalar DsdvNetwork.host[5].wlan[0].mac.dcf.recipientMacDataService packetDeaggregated:count 0
scalar DsdvNetwork.host[5].wlan[0].mac.dcf.recipientMacDataService packetDefragmented:count 203
scalar DsdvNetwork.host[5].wlan[0].mac.dcf.recipientMacDataService packetDropDuplicateDetected:count 0
scalar DsdvNetwork.host[5].wlan[0].mac.dcf.recipientMacDataService packetDropDuplicateDetected:sum(packetBytes) 0
scalar DsdvNetwork.host[5].wlan[0].mac.dcf.recoveryProcedure retryLimitReached:count 0
scalar DsdvNetwork.host[5].wlan[0].mac.dcf frameSequenceFinished:count 49
scalar DsdvNetwork.host[5].wlan[0].mac.dcf packetReceivedFromPeer:count 203
scalar DsdvNetwork.host[5].wlan[0].mac.dcf packetReceivedFromPeer:sum(packetBytes) 14756
scalar DsdvNetwork.host[5].wlan[0].mac.dcf packetReceivedFromPeerUnicast:count 0
scalar DsdvNetwork.host[5].wlan[0].mac.dcf packetReceivedFromPeerUnicast:sum(packetBytes) 0
scalar DsdvNetwork.host[5].wlan[0].mac.dcf packetReceivedFromPeerMulticast:count 203
scalar DsdvNetwork.host[5].wlan[0].mac.dcf packetReceivedFromPeerMulticast:sum(packetBytes) 14756
scalar DsdvNetwork.host[5].wlan[0].mac.dcf packetReceivedFromPeerBroadcast:count 198
scalar DsdvNetwork.host[5].wlan[0].mac.dcf packetReceivedFromPeerBroadcast:sum(packetBytes) 14256
scalar DsdvNetwork.host[5].wlan[0].mac.dcf packetReceivedFromPeerWithRetry:count 0
scalar DsdvNetwork.host[5].wlan[0].mac.dcf packetReceivedFromPeerWithRetry:sum(packetBytes) 0
scalar DsdvNetwork.host[5].wlan[0].mac.dcf packetReceivedFromPeerWithoutRetry:count 203
scalar DsdvNetwork.host[5].wlan[0].mac.dcf packetReceivedFromPeerWithoutRetry:sum(packetBytes) 14756
scalar DsdvNetwork.host[5].wlan[0].mac.dcf packetSentToPeer:count 49
scalar DsdvNetwork.host[5].wlan[0].mac.dcf packetSentToPeer:sum(packetBytes) 3556
scalar DsdvNetwork.host[5].wlan[0].mac.dcf packetSentToPeerUnicast:count 0
scalar DsdvNetwork.host[5].wlan[0].mac.dcf packetSentToPeerUnicast:sum(packetBytes) 0
scalar DsdvNetwork.host[5].wlan[0].mac.dcf packetSentToPeerMulticast:count 49
scalar DsdvNetwork.host[5].wlan[0].mac.dcf packetSentToPeerMulticast:sum(packetBytes) 3556
scalar DsdvNetwork.host[5].wlan[0].mac.dcf packetSentToPeerBroadcast:count 48
scalar DsdvNetwork.host[5].wlan[0].mac.dcf packetSentToPeerBroadcast:sum(packetBytes) 3456
scalar DsdvNetwork.host[5].wlan[0].mac.dcf packetSentToPeerWithRetry:count 0
scalar DsdvNetwork.host[5].wlan[0].mac.dcf packetSentToPeerWithRetry:sum(packetBytes) 0
scalar DsdvNetwork.host[5].wlan[0].mac.dcf packetSentToPeerWithoutRetry:count 49
scalar DsdvNetwork.host[5].wlan[0].mac.dcf packetSentToPeerWithoutRetry:sum(packetBytes) 3556
scalar DsdvNetwork.host[5].wlan[0].mac.dcf packetDrop:count 0
scalar DsdvNetwork.host[5].wlan[0].mac.dcf packetDrop:sum(packetBytes) 0
scalar DsdvNetwork.host[5].wlan[0].mac.dcf packetDropNotAddressedToUs:count 0
scalar DsdvNetwork.host[5].wlan[0].mac.dcf packetDropNotAddressedToUs:sum(packetBytes) 0
scalar DsdvNetwork.host[5].wlan[0].mac.dcf packetDropQueueOverflow:count 0
scalar DsdvNetwork.host[5].wlan[0].mac.dcf packetDropQueueOverflow:sum(packetBytes) 0
scalar DsdvNetwork.host[5].wlan[0].mac.dcf packetDropRetryLimitReached:count 0
scalar DsdvNetwork.host[5].wlan[0].mac.dcf packetDropRetryLimitReached:sum(packetBytes) 0
scalar DsdvNetwork.host[5].wlan[0].mac.dcf linkBroken:count 0
scalar DsdvNetwork.host[5].wlan[0].mac packetReceivedFromLower:count 215
scalar DsdvNetwork.host[5].wlan[0].mac packetReceivedFromLower:sum(packetBytes) 15620
scalar DsdvNetwork.host[5].wlan[0].mac packetSentToLower:count 49
scalar DsdvNetwork.host[5].wlan[0].mac packetSentToLower:sum(packetBytes) 3556
scalar DsdvNetwork.host[5].wlan[0].mac packetReceivedFromUpper:count 49
scalar DsdvNetwork.host[5].wlan[0].mac packetReceivedFromUpper:sum(packetBytes) 2184
scalar DsdvNetwork.host[5].wlan[0].mac packetSentToUpper:count 203
scalar DsdvNetwork.host[5].wlan[0].mac packetSentToUpper:sum(packetBytes) 9072
scalar DsdvNetwork.host[5].wlan[0].mac packetDrop:count 12
scalar DsdvNetwork.host[5].wlan[0].mac packetDrop:sum(packetBytes) 864
scalar DsdvNetwork.host[5].wlan[0].mac packetDropIncorrectlyReceived:count 12
scalar DsdvNetwork.host[5].wlan[0].mac packetDropIncorrectlyReceived:sum(packetBytes) 864
scalar DsdvNetwork.host[5].wlan[0].mac packetDropNotAddressedToUs:count 0
scalar DsdvNetwork.host[5].wlan[0].mac packetDropNotAddressedToUs:sum(packetBytes) 0
scalar DsdvNetwork.host[5].wlan[0].mac packetDropQueueOverflow:count 0
scalar DsdvNetwork.host[5].wlan[0].mac packetDropQueueOverflow:sum(packetBytes) 0
scalar DsdvNetwork.host[5].wlan[0].mac packetDropRetryLimitReached:count 0
scalar DsdvNetwork.host[5].wlan[0].mac packetDropRetryLimitReached:sum(packetBytes) 0
scalar DsdvNetwork.host[5].wlan[0].mac packetDropDuplicateDetected:count 0
scalar DsdvNetwork.host[5].wlan[0].mac packetDropDuplicateDetected:sum(packetBytes) 0
scalar DsdvNetwork.host[5].wlan[0].mac packetDropOther:count 0
scalar DsdvNetwork.host[5].wlan[0].mac packetDropOther:sum(packetBytes) 0
scalar DsdvNetwork.host[5].wlan[0].mac linkBroken:count 0
scalar DsdvNetwork.host[5].wlan[0].radio radioMode:count 101
scalar DsdvNetwork.host[5].wlan[0].radio receptionState:count 574
scalar DsdvNetwork.host[5].wlan[0].radio transmissionState:count 196
scalar DsdvNetwork.host[5].wlan[0] packetDropInterfaceDown:count 0
scalar DsdvNetwork.host[5].wlan[0] packetDropInterfaceDown:sum(packetBytes) 0
scalar DsdvNetwork.host[5].wlan[0] packetDropNoCarrier:count 0
scalar DsdvNetwork.host[5].wlan[0] packetDropNoCarrier:sum(packetBytes) 0
scalar DsdvNetwork.host[5].ipv4.ip packetDropAddressResolutionFailed:count 0
scalar DsdvNetwork.host[5].ipv4.ip packetDropAddressResolutionFailed:sum(packetBytes) 0
scalar DsdvNetwork.host[5].ipv4.ip packetDropHopLimitReached:count 0
scalar DsdvNetwork.host[5].ipv4.ip packetDropHopLimitReached:sum(packetBytes) 0
scalar DsdvNetwork.host[5].ipv4.ip packetDropForwardingDisabled:count 0
scalar DsdvNetwork.host[5].ipv4.ip packetDropForwardingDisabled:sum(packetBytes) 0
scalar DsdvNetwork.host[5].ipv4.ip packetDropLifetimeExpired:count 0
scalar DsdvNetwork.host[5].ipv4.ip packetDropLifetimeExpired:sum(packetBytes) 0
scalar DsdvNetwork.host[5].ipv4.ip packetDropNoInterfaceFound:count 0
scalar DsdvNetwork.host[5].ipv4.ip packetDropNoInterfaceFound:sum(packetBytes) 0
scalar DsdvNetwork.host[5].ipv4.ip packetDropNoRouteFound:count 0
scalar DsdvNetwork.host[5].ipv4.ip packetDropNoRouteFound:sum(packetBytes) 0
scalar DsdvNetwork.host[5].ipv4.ip packetDropUndefined:count 0
scalar DsdvNetwork.host[5].ipv4.ip packetDropUndefined:sum(packetBytes) 0
scalar DsdvNetwork.host[5].ipv4.arp arpResolutionFailed:count 0
scalar DsdvNetwork.host[5].ipv4.arp arpResolutionCompleted:count 0
scalar DsdvNetwork.host[5].ipv4.arp arpResolutionInitiated:count 0
scalar DsdvNetwork.host[5].ipv4.arp arpReplySent:count 0
scalar DsdvNetwork.host[5].ipv4.arp arpReplySent:sum(packetBytes) 0
scalar DsdvNetwork.host[5].ipv4.arp arpRequestSent:count 0
scalar DsdvNetwork.host[5].ipv4.arp arpRequestSent:sum(packetBytes) 0
scalar DsdvNetwork.host[5].ipv6.neighbourDiscovery dadFailed:count 0
scalar DsdvNetwork.host[5].ipv6.neighbourDiscovery dadCompleted:count 1
scalar DsdvNetwork.host[5].ipv6.neighbourDiscovery startDad:count 1
scalar DsdvNetwork.host[5].udp packetReceived:count 0
scalar DsdvNetwork.host[5].udp packetReceived:sum(packetBytes) 0
scalar DsdvNetwork.host[5].udp packetSent:count 0
scalar DsdvNetwork.host[5].udp packetSent:sum(packetBytes) 0
scalar DsdvNetwork.host[5].udp passedUpPk:count 0
scalar DsdvNetwork.host[5].udp droppedPkWrongPort:count 0
scalar DsdvNetwork.host[5].udp droppedPkBadChecksum:count 0
scalar DsdvNetwork.host[6].lo[0].lo rcvdPkFromHl:count 0
scalar DsdvNetwork.host[6].lo[0].lo rcvdPkFromHl:sum(packetBytes) 0
scalar DsdvNetwork.host[6].lo[0].lo passedUpPk:count 0
scalar DsdvNetwork.host[6].lo[0].lo passedUpPk:sum(packetBytes) 0
scalar DsdvNetwork.host[6].lo[0] packetDropInterfaceDown:count 0
scalar DsdvNetwork.host[6].lo[0] packetDropInterfaceDown:sum(packetBytes) 0
scalar DsdvNetwork.host[6].lo[0] packetDropNoCarrier:count 0
scalar DsdvNetwork.host[6].lo[0] packetDropNoCarrier:sum(packetBytes) 0
scalar DsdvNetwork.host[6].wlan[0].mac.dcf.channelAccess.pendingQueue queueLength:last 0
scalar DsdvNetwork.host[6].wlan[0].mac.dcf.channelAccess.pendingQueue queueLength:max 1
scalar DsdvNetwork.host[6].wlan[0].mac.dcf.channelAccess.pendingQueue queueLength:timeavg 0.00021287745979999998
scalar DsdvNetwork.host[6].wlan[0].mac.dcf.channelAccess.pendingQueue queueBitLength:last 0
scalar DsdvNetwork.host[6].wlan[0].mac.dcf.channelAccess.pendingQueue queueBitLength:max 800
scalar DsdvNetwork.host[6].wlan[0].mac.dcf.channelAccess.pendingQueue queueBitLength:timeavg 0.1308187067136
scalar DsdvNetwork.host[6].wlan[0].mac.dcf.channelAccess.pendingQueue outgoingPackets:count 44
scalar DsdvNetwork.host[6].wlan[0].mac.dcf.channelAccess.pendingQueue outgoingPacketLengths:sum 25568
scalar DsdvNetwork.host[6].wlan[0].mac.dcf.channelAccess.pendingQueue incomingPackets:count 44
scalar DsdvNetwork.host[6].wlan[0].mac.dcf.channelAccess.pendingQueue incomingPacketLengths:sum 25568
scalar DsdvNetwork.host[6].wlan[0].mac.dcf.channelAccess.pendingQueue droppedPacketsQueueOverflow:count 0
scalar DsdvNetwork.host[6].wlan[0].mac.dcf.channelAccess.pendingQueue droppedPacketLengthsQueueOverflow:sum 0
scalar DsdvNetwork.host[6].wlan[0].mac.dcf.channelAccess.inProgressFrames queueLength:max 1
scalar DsdvNetwork.host[6].wlan[0].mac.dcf.channelAccess.inProgressFrames queueLength:timeavg 0.0021232
scalar DsdvNetwork.host[6].wlan[0].mac.dcf.channelAccess.contention channelAccessGranted:count 44
scalar DsdvNetwork.host[6].wlan[0].mac.dcf.channelAccess.contention stateChanged:count 2234
scalar DsdvNetwork.host[6].wlan[0].mac.dcf.channelAccess channelOwnershipChanged:count 88
scalar DsdvNetwork.host[6].wlan[0].mac.dcf.originatorMacDataService packetAggregated:count 0
scalar DsdvNetwork.host[6].wlan[0].mac.dcf.originatorMacDataService packetFragmented:count 0
scalar DsdvNetwork.host[6].wlan[0].mac.dcf.recipientMacDataService packetDeaggregated:count 0
scalar DsdvNetwork.host[6].wlan[0].mac.dcf.recipientMacDataService packetDefragmented:count 325
scalar DsdvNetwork.host[6].wlan[0].mac.dcf.recipientMacDataService packetDropDuplicateDetected:count 0
scalar DsdvNetwork.host[6].wlan[0].mac.dcf.recipientMacDataService packetDropDuplicateDetected:sum(packetBytes) 0
scalar DsdvNetwork.host[6].wlan[0].mac.dcf.recoveryProcedure retryLimitReached:count 0
scalar DsdvNetwork.host[6].wlan[0].mac.dcf frameSequenceFinished:count 44
scalar DsdvNetwork.host[6].wlan[0].mac.dcf packetReceivedFromPeer:count 325
scalar DsdvNetwork.host[6].wlan[0].mac.dcf packetReceivedFromPeer:sum(packetBytes) 23524
scalar DsdvNetwork.host[6].wlan[0].mac.dcf packetReceivedFromPeerUnicast:count 0
scalar DsdvNetwork.host[6].wlan[0].mac.dcf packetReceivedFromPeerUnicast:sum(packetBytes) 0
scalar DsdvNetwork.host[6].wlan[0].mac.dcf packetReceivedFromPeerMulticast:count 325
scalar DsdvNetwork.host[6].wlan[0].mac.dcf packetReceivedFromPeerMulticast:sum(packetBytes) 23524
scalar DsdvNetwork.host[6].wlan[0].mac.dcf packetReceivedFromPeerBroadcast:count 318
scalar DsdvNetwork.host[6].wlan[0].mac.dcf packetReceivedFromPeerBroadcast:sum(packetBytes) 22824
scalar DsdvNetwork.host[6].wlan[0].mac.dcf packetReceivedFromPeerWithRetry:count 0
scalar DsdvNetwork.host[6].wlan[0].mac.dcf packetReceivedFromPeerWithRetry:sum(packetBytes) 0
scalar DsdvNetwork.host[6].wlan[0].mac.dcf packetReceivedFromPeerWithoutRetry:count 325
scalar DsdvNetwork.host[6].wlan[0].mac.dcf packetReceivedFromPeerWithoutRetry:sum(packetBytes) 23524
scalar DsdvNetwork.host[6].wlan[0].mac.dcf packetSentToPeer:count 44
scalar DsdvNetwork.host[6].wlan[0].mac.dcf packetSentToPeer:sum(packetBytes) 3196
scalar DsdvNetwork.host[6].wlan[0].mac.dcf packetSentToPeerUnicast:count 0
scalar DsdvNetwork.host[6].wlan[0].mac.dcf packetSentToPeerUnicast:sum(packetBytes) 0
scalar DsdvNetwork.host[6].wlan[0].mac.dcf packetSentToPeerMulticast:count 44
scalar DsdvNetwork.host[6].wlan[0].mac.dcf packetSentToPeerMulticast:sum(packetBytes) 3196
scalar DsdvNetwork.host[6].wlan[0].mac.dcf packetSentToPeerBroadcast:count 43
scalar DsdvNetwork.host[6].wlan[0].mac.dcf packetSentToPeerBroadcast:sum(packetBytes) 3096
scalar DsdvNetwork.host[6].wlan[0].mac.dcf packetSentToPeerWithRetry:count 0
scalar DsdvNetwork.host[6].wlan[0].mac.dcf packetSentToPeerWithRetry:sum(packetBytes) 0
scalar DsdvNetwork.host[6].wlan[0].mac.dcf packetSentToPeerWithoutRetry:count 44
scalar DsdvNetwork.host[6].wlan[0].mac.dcf packetSentToPeerWithoutRetry:sum(packetBytes) 3196
scalar DsdvNetwork.host[6].wlan[0].mac.dcf packetDrop:count 78
scalar DsdvNetwork.host[6].wlan[0].mac.dcf packetDrop:sum(packetBytes) 4728
scalar DsdvNetwork.host[6].wlan[0].mac.dcf packetDropNotAddressedToUs:count 78
scalar DsdvNetwork.host[6].wlan[0].mac.dcf packetDropNotAddressedToUs:sum(packetBytes) 4728
scalar DsdvNetwork.host[6].wlan[0].mac.dcf packetDropQueueOverflow:count 0
scalar DsdvNetwork.host[6].wlan[0].mac.dcf packetDropQueueOverflow:sum(packetBytes) 0
scalar DsdvNetwork.host[6].wlan[0].mac.dcf packetDropRetryLimitReached:count 0
scalar DsdvNetwork.host[6].wlan[0].mac.dcf packetDropRetryLimitReached:sum(packetBytes) 0
scalar DsdvNetwork.host[6].wlan[0].mac.dcf linkBroken:count 0
scalar DsdvNetwork.host[6].wlan[0].mac packetReceivedFromLower:count 435
scalar DsdvNetwork.host[6].wlan[0].mac packetReceivedFromLower:sum(packetBytes) 30584
scalar DsdvNetwork.host[6].wlan[0].mac packetSentToLower:count 44
scalar DsdvNetwork.host[6].wlan[0].mac packetSentToLower:sum(packetBytes) 3196
scalar DsdvNetwork.host[6].wlan[0].mac packetReceivedFromUpper:count 44
scalar DsdvNetwork.host[6].wlan[0].mac packetReceivedFromUpper:sum(packetBytes) 1964
scalar DsdvNetwork.host[6].wlan[0].mac packetSentToUpper:count 325
scalar DsdvNetwork.host[6].wlan[0].mac packetSentToUpper:sum(packetBytes) 14424
scalar DsdvNetwork.host[6].wlan[0].mac packetDrop:count 110
scalar DsdvNetwork.host[6].wlan[0].mac packetDrop:sum(packetBytes) 7060
scalar DsdvNetwork.host[6].wlan[0].mac packetDropIncorrectlyReceived:count 32
scalar DsdvNetwork.host[6].wlan[0].mac packetDropIncorrectlyReceived:sum(packetBytes) 2332
scalar DsdvNetwork.host[6].wlan[0].mac packetDropNotAddressedToUs:count 78
scalar DsdvNetwork.host[6].wlan[0].mac packetDropNotAddressedToUs:sum(packetBytes) 4728
scalar DsdvNetwork.host[6].wlan[0].mac packetDropQueueOverflow:count 0
scalar DsdvNetwork.host[6].wlan[0].mac packetDropQueueOverflow:sum(packetBytes) 0
scalar DsdvNetwork.host[6].wlan[0].mac packetDropRetryLimitReached:count 0
scalar DsdvNetwork.host[6].wlan[0].mac packetDropRetryLimitReached:sum(packetBytes) 0
scalar DsdvNetwork.host[6].wlan[0].mac packetDropDuplicateDetected:count 0
scalar DsdvNetwork.host[6].wlan[0].mac packetDropDuplicateDetected:sum(packetBytes) 0
scalar DsdvNetwork.host[6].wlan[0].mac packetDropOther:count 0
scalar DsdvNetwork.host[6].wlan[0].mac packetDropOther:sum(packetBytes) 0
scalar DsdvNetwork.host[6].wlan[0].mac linkBroken:count 0
scalar DsdvNetwork.host[6].wlan[0].radio radioMode:count 91
scalar DsdvNetwork.host[6].wlan[0].radio receptionState:count 992
scalar DsdvNetwork.host[6].wlan[0].radio transmissionState:count 176
scalar DsdvNetwork.host[6].wlan[0] packetDropInterfaceDown:count 0
scalar DsdvNetwork.host[6].wlan[0] packetDropInterfaceDown:sum(packetBytes) 0
scalar DsdvNetwork.host[6].wlan[0] packetDropNoCarrier:count 0
scalar DsdvNetwork.host[6].wlan[0] packetDropNoCarrier:sum(packetBytes) 0
scalar DsdvNetwork.host[6].ipv4.ip packetDropAddressResolutionFailed:count 0
scalar DsdvNetwork.host[6].ipv4.ip packetDropAddressResolutionFailed:sum(packetBytes) 0
scalar DsdvNetwork.host[6].ipv4.ip packetDropHopLimitReached:count 0
scalar DsdvNetwork.host[6].ipv4.ip packetDropHopLimitReached:sum(packetBytes) 0
scalar DsdvNetwork.host[6].ipv4.ip packetDropForwardingDisabled:count 0
scalar DsdvNetwork.host[6].ipv4.ip packetDropForwardingDisabled:sum(packetBytes) 0
scalar DsdvNetwork.host[6].ipv4.ip packetDropLifetimeExpired:count 0
scalar DsdvNetwork.host[6].ipv4.ip packetDropLifetimeExpired:sum(packetBytes) 0
scalar DsdvNetwork.host[6].ipv4.ip packetDropNoInterfaceFound:count 0
scalar DsdvNetwork.host[6].ipv4.ip packetDropNoInterfaceFound:sum(packetBytes) 0
scalar DsdvNetwork.host[6].ipv4.ip packetDropNoRouteFound:count 0
scalar DsdvNetwork.host[6].ipv4.ip packetDropNoRouteFound:sum(packetBytes) 0
scalar DsdvNetwork.host[6].ipv4.ip packetDropUndefined:count 0
scalar DsdvNetwork.host[6].ipv4.ip packetDropUndefined:sum(packetBytes) 0
scalar DsdvNetwork.host[6].ipv4.arp arpResolutionFailed:count 0
scalar DsdvNetwork.host[6].ipv4.arp arpResolutionCompleted:count 0
scalar DsdvNetwork.host[6].ipv4.arp arpResolutionInitiated:count 0
scalar DsdvNetwork.host[6].ipv4.arp arpReplySent:count 0
scalar DsdvNetwork.host[6].ipv4.arp arpReplySent:sum(packetBytes) 0
scalar DsdvNetwork.host[6].ipv4.arp arpRequestSent:count 0
scalar DsdvNetwork.host[6].ipv4.arp arpRequestSent:sum(packetBytes) 0
scalar DsdvNetwork.host[6].ipv6.neighbourDiscovery dadFailed:count 0
scalar DsdvNetwork.host[6].ipv6.neighbourDiscovery dadCompleted:count 1
scalar DsdvNetwork.host[6].ipv6.neighbourDiscovery startDad:count 1
scalar DsdvNetwork.host[6].udp packetReceived:count 0
scalar DsdvNetwork.host[6].udp packetReceived:sum(packetBytes) 0
scalar DsdvNetwork.host[6].udp packetSent:count 0
scalar DsdvNetwork.host[6].udp packetSent:sum(packetBytes) 0
scalar DsdvNetwork.host[6].udp passedUpPk:count 0
scalar DsdvNetwork.host[6].udp droppedPkWrongPort:count 0
scalar DsdvNetwork.host[6].udp droppedPkBadChecksum:count 0
scalar DsdvNetwork.host[7].lo[0].lo rcvdPkFromHl:count 0
scalar DsdvNetwork.host[7].lo[0].lo rcvdPkFromHl:sum(packetBytes) 0
scalar DsdvNetwork.host[7].lo[0].lo passedUpPk:count 0
scalar DsdvNetwork.host[7].lo[0].lo passedUpPk:sum(packetBytes) 0
scalar DsdvNetwork.host[7].lo[0] packetDropInterfaceDown:count 0
scalar DsdvNetwork.host[7].lo[0] packetDropInterfaceDown:sum(packetBytes) 0
scalar DsdvNetwork.host[7].lo[0] packetDropNoCarrier:count 0
scalar DsdvNetwork.host[7].lo[0] packetDropNoCarrier:sum(packetBytes) 0
scalar DsdvNetwork.host[7].wlan[0].mac.dcf.channelAccess.pendingQueue queueLength:last 0
scalar DsdvNetwork.host[7].wlan[0].mac.dcf.channelAccess.pendingQueue queueLength:max 1
scalar DsdvNetwork.host[7].wlan[0].mac.dcf.channelAccess.pendingQueue queueLength:timeavg 0.0003548478852
scalar DsdvNetwork.host[7].wlan[0].mac.dcf.channelAccess.pendingQueue queueBitLength:last 0
scalar DsdvNetwork.host[7].wlan[0].mac.dcf.channelAccess.pendingQueue queueBitLength:max 960
scalar DsdvNetwork.host[7].wlan[0].mac.dcf.channelAccess.pendingQueue queueBitLength:timeavg 0.2400147818752
scalar DsdvNetwork.host[7].wlan[0].mac.dcf.channelAccess.pendingQueue outgoingPackets:count 49
scalar DsdvNetwork.host[7].wlan[0].mac.dcf.channelAccess.pendingQueue outgoingPacketLengths:sum 29472
scalar DsdvNetwork.host[7].wlan[0].mac.dcf.channelAccess.pendingQueue incomingPackets:count 49
scalar DsdvNetwork.host[7].wlan[0].mac.dcf.channelAccess.pendingQueue incomingPacketLengths:sum 29472
scalar DsdvNetwork.host[7].wlan[0].mac.dcf.channelAccess.pendingQueue droppedPacketsQueueOverflow:count 0
scalar DsdvNetwork.host[7].wlan[0].mac.dcf.channelAccess.pendingQueue droppedPacketLengthsQueueOverflow:sum 0
scalar DsdvNetwork.host[7].wlan[0].mac.dcf.channelAccess.inProgressFrames queueLength:max 1
scalar DsdvNetwork.host[7].wlan[0].mac.dcf.channelAccess.inProgressFrames queueLength:timeavg 0.0025179464084
scalar DsdvNetwork.host[7].wlan[0].mac.dcf.channelAccess.contention channelAccessGranted:count 49
scalar DsdvNetwork.host[7].wlan[0].mac.dcf.channelAccess.contention stateChanged:count 2254
scalar DsdvNetwork.host[7].wlan[0].mac.dcf.channelAccess channelOwnershipChanged:count 98
scalar DsdvNetwork.host[7].wlan[0].mac.dcf.originatorMacDataService packetAggregated:count 0
scalar DsdvNetwork.host[7].wlan[0].mac.dcf.originatorMacDataService packetFragmented:count 0
scalar DsdvNetwork.host[7].wlan[0].mac.dcf.recipientMacDataService packetDeaggregated:count 0
scalar DsdvNetwork.host[7].wlan[0].mac.dcf.recipientMacDataService packetDefragmented:count 333
scalar DsdvNetwork.host[7].wlan[0].mac.dcf.recipientMacDataService packetDropDuplicateDetected:count 0
scalar DsdvNetwork.host[7].wlan[0].mac.dcf.recipientMacDataService packetDropDuplicateDetected:sum(packetBytes) 0
scalar DsdvNetwork.host[7].wlan[0].mac.dcf.recoveryProcedure retryLimitReached:count 0
scalar DsdvNetwork.host[7].wlan[0].mac.dcf frameSequenceFinished:count 49
scalar DsdvNetwork.host[7].wlan[0].mac.dcf packetReceivedFromPeer:count 337
scalar DsdvNetwork.host[7].wlan[0].mac.dcf packetReceivedFromPeer:sum(packetBytes) 24320
scalar DsdvNetwork.host[7].wlan[0].mac.dcf packetReceivedFromPeerUnicast:count 8
scalar DsdvNetwork.host[7].wlan[0].mac.dcf packetReceivedFromPeerUnicast:sum(packetBytes) 480
scalar DsdvNetwork.host[7].wlan[0].mac.dcf packetReceivedFromPeerMulticast:count 329
scalar DsdvNetwork.host[7].wlan[0].mac.dcf packetReceivedFromPeerMulticast:sum(packetBytes) 23840
scalar DsdvNetwork.host[7].wlan[0].mac.dcf packetReceivedFromPeerBroadcast:count 321
scalar DsdvNetwork.host[7].wlan[0].mac.dcf packetReceivedFromPeerBroadcast:sum(packetBytes) 23040
scalar DsdvNetwork.host[7].wlan[0].mac.dcf packetReceivedFromPeerWithRetry:count 0
scalar DsdvNetwork.host[7].wlan[0].mac.dcf packetReceivedFromPeerWithRetry:sum(packetBytes) 0
scalar DsdvNetwork.host[7].wlan[0].mac.dcf packetReceivedFromPeerWithoutRetry:count 337
scalar DsdvNetwork.host[7].wlan[0].mac.dcf packetReceivedFromPeerWithoutRetry:sum(packetBytes) 24320
scalar DsdvNetwork.host[7].wlan[0].mac.dcf packetSentToPeer:count 53
scalar DsdvNetwork.host[7].wlan[0].mac.dcf packetSentToPeer:sum(packetBytes) 3740
scalar DsdvNetwork.host[7].wlan[0].mac.dcf packetSentToPeerUnicast:count 8
scalar DsdvNetwork.host[7].wlan[0].mac.dcf packetSentToPeerUnicast:sum(packetBytes) 480
scalar DsdvNetwork.host[7].wlan[0].mac.dcf packetSentToPeerMulticast:count 45
scalar DsdvNetwork.host[7].wlan[0].mac.dcf packetSentToPeerMulticast:sum(packetBytes) 3260
scalar DsdvNetwork.host[7].wlan[0].mac.dcf packetSentToPeerBroadcast:count 44
scalar DsdvNetwork.host[7].wlan[0].mac.dcf packetSentToPeerBroadcast:sum(packetBytes) 3160
scalar DsdvNetwork.host[7].wlan[0].mac.dcf packetSentToPeerWithRetry:count 0
scalar DsdvNetwork.host[7].wlan[0].mac.dcf packetSentToPeerWithRetry:sum(packetBytes) 0
scalar DsdvNetwork.host[7].wlan[0].mac.dcf packetSentToPeerWithoutRetry:count 53
scalar DsdvNetwork.host[7].wlan[0].mac.dcf packetSentToPeerWithoutRetry:sum(packetBytes) 3740
scalar DsdvNetwork.host[7].wlan[0].mac.dcf packetDrop:count 70
scalar DsdvNetwork.host[7].wlan[0].mac.dcf packetDrop:sum(packetBytes) 4304
scalar DsdvNetwork.host[7].wlan[0].mac.dcf packetDropNotAddressedToUs:count 70
scalar DsdvNetwork.host[7].wlan[0].mac.dcf packetDropNotAddressedToUs:sum(packetBytes) 4304
scalar DsdvNetwork.host[7].wlan[0].mac.dcf packetDropQueueOverflow:count 0
scalar DsdvNetwork.host[7].wlan[0].mac.dcf packetDropQueueOverflow:sum(packetBytes) 0
scalar DsdvNetwork.host[7].wlan[0].mac.dcf packetDropRetryLimitReached:count 0
scalar DsdvNetwork.host[7].wlan[0].mac.dcf packetDropRetryLimitReached:sum(packetBytes) 0
scalar DsdvNetwork.host[7].wlan[0].mac.dcf linkBroken:count 0
scalar DsdvNetwork.host[7].wlan[0].mac packetReceivedFromLower:count 437
scalar DsdvNetwork.host[7].wlan[0].mac packetReceivedFromLower:sum(packetBytes) 30718
scalar DsdvNetwork.host[7].wlan[0].mac packetSentToLower:count 53
scalar DsdvNetwork.host[7].wlan[0].mac packetSentToLower:sum(packetBytes) 3740
scalar DsdvNetwork.host[7].wlan[0].mac packetReceivedFromUpper:count 49
scalar DsdvNetwork.host[7].wlan[0].mac packetReceivedFromUpper:sum(packetBytes) 2312
scalar DsdvNetwork.host[7].wlan[0].mac packetSentToUpper:count 333
scalar DsdvNetwork.host[7].wlan[0].mac packetSentToUpper:sum(packetBytes) 14940
scalar DsdvNetwork.host[7].wlan[0].mac packetDrop:count 100
scalar DsdvNetwork.host[7].wlan[0].mac packetDrop:sum(packetBytes) 6398
scalar DsdvNetwork.host[7].wlan[0].mac packetDropIncorrectlyReceived:count 30
scalar DsdvNetwork.host[7].wlan[0].mac packetDropIncorrectlyReceived:sum(packetBytes) 2094
[...]
scalar DsdvNetwork.host[19].wlan[0].mac packetDropRetryLimitReached:vector(packetBytes):mean nan
scalar DsdvNetwork.host[19].wlan[0].mac packetDropRetryLimitReached:vector(packetBytes):stddev nan
scalar DsdvNetwork.host[19].wlan[0].mac packetDropRetryLimitReached:vector(packetBytes):min inf
scalar DsdvNetwork.host[19].wlan[0].mac packetDropRetryLimitReached:vector(packetBytes):max -inf
scalar DsdvNetwork.host[19].wlan[0].mac packetDropRetryLimitReached:vector(packetBytes):starttime nan
scalar DsdvNetwork.host[19].wlan[0].mac packetDropRetryLimitReached:vector(packetBytes):endtime nan
scalar DsdvNetwork.host[19].wlan[0].mac packetDropDuplicateDetected:vector(packetBytes):count 0
scalar DsdvNetwork.host[19].wlan[0].mac packetDropDuplicateDetected:vector(packetBytes):sum 0
scalar DsdvNetwork.host[19].wlan[0].mac packetDropDuplicateDetected:vector(packetBytes):sumweights 0
scalar DsdvNetwork.host[19].wlan[0].mac packetDropDuplicateDetected:vector(packetBytes):mean nan
scalar DsdvNetwork.host[19].wlan[0].mac packetDropDuplicateDetected:vector(packetBytes):stddev nan
scalar DsdvNetwork.host[19].wlan[0].mac packetDropDuplicateDetected:vector(packetBytes):min inf
scalar DsdvNetwork.host[19].wlan[0].mac packetDropDuplicateDetected:vector(packetBytes):max -inf
scalar DsdvNetwork.host[19].wlan[0].mac packetDropDuplicateDetected:vector(packetBytes):starttime nan
scalar DsdvNetwork.host[19].wlan[0].mac packetDropDuplicateDetected:vector(packetBytes):endtime nan
scalar DsdvNetwork.host[19].wlan[0].mac packetDropOther:vector(packetBytes):count 0
scalar DsdvNetwork.host[19].wlan[0].mac packetDropOther:vector(packetBytes):sum 0
scalar DsdvNetwork.host[19].wlan[0].mac packetDropOther:vector(packetBytes):sumweights 0
scalar DsdvNetwork.host[19].wlan[0].mac packetDropOther:vector(packetBytes):mean nan
scalar DsdvNetwork.host[19].wlan[0].mac packetDropOther:vector(packetBytes):stddev nan
scalar DsdvNetwork.host[19].wlan[0].mac packetDropOther:vector(packetBytes):min inf
scalar DsdvNetwork.host[19].wlan[0].mac packetDropOther:vector(packetBytes):max -inf
scalar DsdvNetwork.host[19].wlan[0].mac packetDropOther:vector(packetBytes):starttime nan
scalar DsdvNetwork.host[19].wlan[0].mac packetDropOther:vector(packetBytes):endtime nan
scalar DsdvNetwork.host[19].wlan[0].radio radioMode:vector:count 109
scalar DsdvNetwork.host[19].wlan[0].radio radioMode:vector:sum 267
scalar DsdvNetwork.host[19].wlan[0].radio radioMode:vector:sumweights 109
scalar DsdvNetwork.host[19].wlan[0].radio radioMode:vector:mean 2.44954128440367
scalar DsdvNetwork.host[19].wlan[0].radio radioMode:vector:stddev 0.6007131337944505
scalar DsdvNetwork.host[19].wlan[0].radio radioMode:vector:min 0
scalar DsdvNetwork.host[19].wlan[0].radio radioMode:vector:max 3
scalar DsdvNetwork.host[19].wlan[0].radio radioMode:vector:starttime 0
scalar DsdvNetwork.host[19].wlan[0].radio radioMode:vector:endtime 9.201169200058002
scalar DsdvNetwork.host[19].wlan[0].radio receptionState:vector:count 988
scalar DsdvNetwork.host[19].wlan[0].radio receptionState:vector:sum 1798
scalar DsdvNetwork.host[19].wlan[0].radio receptionState:vector:sumweights 988
scalar DsdvNetwork.host[19].wlan[0].radio receptionState:vector:mean 1.819838056680162
scalar DsdvNetwork.host[19].wlan[0].radio receptionState:vector:stddev 1.0460187338569054
scalar DsdvNetwork.host[19].wlan[0].radio receptionState:vector:min 0
scalar DsdvNetwork.host[19].wlan[0].radio receptionState:vector:max 3
scalar DsdvNetwork.host[19].wlan[0].radio receptionState:vector:starttime 0
scalar DsdvNetwork.host[19].wlan[0].radio receptionState:vector:endtime 9.201427978620002
scalar DsdvNetwork.host[19].wlan[0].radio transmissionState:vector:count 212
scalar DsdvNetwork.host[19].wlan[0].radio transmissionState:vector:sum 212
scalar DsdvNetwork.host[19].wlan[0].radio transmissionState:vector:sumweights 212
scalar DsdvNetwork.host[19].wlan[0].radio transmissionState:vector:mean 1
scalar DsdvNetwork.host[19].wlan[0].radio transmissionState:vector:stddev 0.708780409045316
scalar DsdvNetwork.host[19].wlan[0].radio transmissionState:vector:min 0
scalar DsdvNetwork.host[19].wlan[0].radio transmissionState:vector:max 2
scalar DsdvNetwork.host[19].wlan[0].radio transmissionState:vector:starttime 0.10785237061800002
scalar DsdvNetwork.host[19].wlan[0].radio transmissionState:vector:endtime 9.201169200058002
scalar DsdvNetwork.host[19].wlan[0].radio radioChannel:vector:count 1
scalar DsdvNetwork.host[19].wlan[0].radio radioChannel:vector:sum 0
scalar DsdvNetwork.host[19].wlan[0].radio radioChannel:vector:sumweights 1
scalar DsdvNetwork.host[19].wlan[0].radio radioChannel:vector:mean 0
scalar DsdvNetwork.host[19].wlan[0].radio radioChannel:vector:stddev nan
scalar DsdvNetwork.host[19].wlan[0].radio radioChannel:vector:min 0
scalar DsdvNetwork.host[19].wlan[0].radio radioChannel:vector:max 0
scalar DsdvNetwork.host[19].wlan[0].radio radioChannel:vector:starttime 0
scalar DsdvNetwork.host[19].wlan[0].radio radioChannel:vector:endtime 0
scalar DsdvNetwork.host[19].wlan[0] packetDropInterfaceDown:vector(packetBytes):count 0
scalar DsdvNetwork.host[19].wlan[0] packetDropInterfaceDown:vector(packetBytes):sum 0
scalar DsdvNetwork.host[19].wlan[0] packetDropInterfaceDown:vector(packetBytes):sumweights 0
scalar DsdvNetwork.host[19].wlan[0] packetDropInterfaceDown:vector(packetBytes):mean nan
scalar DsdvNetwork.host[19].wlan[0] packetDropInterfaceDown:vector(packetBytes):stddev nan
scalar DsdvNetwork.host[19].wlan[0] packetDropInterfaceDown:vector(packetBytes):min inf
scalar DsdvNetwork.host[19].wlan[0] packetDropInterfaceDown:vector(packetBytes):max -inf
scalar DsdvNetwork.host[19].wlan[0] packetDropInterfaceDown:vector(packetBytes):starttime nan
scalar DsdvNetwork.host[19].wlan[0] packetDropInterfaceDown:vector(packetBytes):endtime nan
scalar DsdvNetwork.host[19].wlan[0] packetDropNoCarrier:vector(packetBytes):count 0
scalar DsdvNetwork.host[19].wlan[0] packetDropNoCarrier:vector(packetBytes):sum 0
scalar DsdvNetwork.host[19].wlan[0] packetDropNoCarrier:vector(packetBytes):sumweights 0
scalar DsdvNetwork.host[19].wlan[0] packetDropNoCarrier:vector(packetBytes):mean nan
scalar DsdvNetwork.host[19].wlan[0] packetDropNoCarrier:vector(packetBytes):stddev nan
scalar DsdvNetwork.host[19].wlan[0] packetDropNoCarrier:vector(packetBytes):min inf
scalar DsdvNetwork.host[19].wlan[0] packetDropNoCarrier:vector(packetBytes):max -inf
scalar DsdvNetwork.host[19].wlan[0] packetDropNoCarrier:vector(packetBytes):starttime nan
scalar DsdvNetwork.host[19].wlan[0] packetDropNoCarrier:vector(packetBytes):endtime nan
scalar DsdvNetwork.host[19].ipv4.ip packetDropAddressResolutionFailed:vector(packetBytes):count 0
scalar DsdvNetwork.host[19].ipv4.ip packetDropAddressResolutionFailed:vector(packetBytes):sum 0
scalar DsdvNetwork.host[19].ipv4.ip packetDropAddressResolutionFailed:vector(packetBytes):sumweights 0
scalar DsdvNetwork.host[19].ipv4.ip packetDropAddressResolutionFailed:vector(packetBytes):mean nan
scalar DsdvNetwork.host[19].ipv4.ip packetDropAddressResolutionFailed:vector(packetBytes):stddev nan
scalar DsdvNetwork.host[19].ipv4.ip packetDropAddressResolutionFailed:vector(packetBytes):min inf
scalar DsdvNetwork.host[19].ipv4.ip packetDropAddressResolutionFailed:vector(packetBytes):max -inf
scalar DsdvNetwork.host[19].ipv4.ip packetDropAddressResolutionFailed:vector(packetBytes):starttime nan
scalar DsdvNetwork.host[19].ipv4.ip packetDropAddressResolutionFailed:vector(packetBytes):endtime nan
scalar DsdvNetwork.host[19].ipv4.ip packetDropHopLimitReached:vector(packetBytes):count 0
scalar DsdvNetwork.host[19].ipv4.ip packetDropHopLimitReached:vector(packetBytes):sum 0
scalar DsdvNetwork.host[19].ipv4.ip packetDropHopLimitReached:vector(packetBytes):sumweights 0
scalar DsdvNetwork.host[19].ipv4.ip packetDropHopLimitReached:vector(packetBytes):mean nan
scalar DsdvNetwork.host[19].ipv4.ip packetDropHopLimitReached:vector(packetBytes):stddev nan
scalar DsdvNetwork.host[19].ipv4.ip packetDropHopLimitReached:vector(packetBytes):min inf
scalar DsdvNetwork.host[19].ipv4.ip packetDropHopLimitReached:vector(packetBytes):max -inf
scalar DsdvNetwork.host[19].ipv4.ip packetDropHopLimitReached:vector(packetBytes):starttime nan
scalar DsdvNetwork.host[19].ipv4.ip packetDropHopLimitReached:vector(packetBytes):endtime nan
scalar DsdvNetwork.host[19].ipv4.ip packetDropForwardingDisabled:vector(packetBytes):count 0
scalar DsdvNetwork.host[19].ipv4.ip packetDropForwardingDisabled:vector(packetBytes):sum 0
scalar DsdvNetwork.host[19].ipv4.ip packetDropForwardingDisabled:vector(packetBytes):sumweights 0
scalar DsdvNetwork.host[19].ipv4.ip packetDropForwardingDisabled:vector(packetBytes):mean nan
scalar DsdvNetwork.host[19].ipv4.ip packetDropForwardingDisabled:vector(packetBytes):stddev nan
scalar DsdvNetwork.host[19].ipv4.ip packetDropForwardingDisabled:vector(packetBytes):min inf
scalar DsdvNetwork.host[19].ipv4.ip packetDropForwardingDisabled:vector(packetBytes):max -inf
scalar DsdvNetwork.host[19].ipv4.ip packetDropForwardingDisabled:vector(packetBytes):starttime nan
scalar DsdvNetwork.host[19].ipv4.ip packetDropForwardingDisabled:vector(packetBytes):endtime nan
scalar DsdvNetwork.host[19].ipv4.ip packetDropLifetimeExpired:vector(packetBytes):count 0
scalar DsdvNetwork.host[19].ipv4.ip packetDropLifetimeExpired:vector(packetBytes):sum 0
scalar DsdvNetwork.host[19].ipv4.ip packetDropLifetimeExpired:vector(packetBytes):sumweights 0
scalar DsdvNetwork.host[19].ipv4.ip packetDropLifetimeExpired:vector(packetBytes):mean nan
scalar DsdvNetwork.host[19].ipv4.ip packetDropLifetimeExpired:vector(packetBytes):stddev nan
scalar DsdvNetwork.host[19].ipv4.ip packetDropLifetimeExpired:vector(packetBytes):min inf
scalar DsdvNetwork.host[19].ipv4.ip packetDropLifetimeExpired:vector(packetBytes):max -inf
scalar DsdvNetwork.host[19].ipv4.ip packetDropLifetimeExpired:vector(packetBytes):starttime nan
scalar DsdvNetwork.host[19].ipv4.ip packetDropLifetimeExpired:vector(packetBytes):endtime nan
scalar DsdvNetwork.host[19].ipv4.ip packetDropNoInterfaceFound:vector(packetBytes):count 0
scalar DsdvNetwork.host[19].ipv4.ip packetDropNoInterfaceFound:vector(packetBytes):sum 0
scalar DsdvNetwork.host[19].ipv4.ip packetDropNoInterfaceFound:vector(packetBytes):sumweights 0
scalar DsdvNetwork.host[19].ipv4.ip packetDropNoInterfaceFound:vector(packetBytes):mean nan
scalar DsdvNetwork.host[19].ipv4.ip packetDropNoInterfaceFound:vector(packetBytes):stddev nan
scalar DsdvNetwork.host[19].ipv4.ip packetDropNoInterfaceFound:vector(packetBytes):min inf
scalar DsdvNetwork.host[19].ipv4.ip packetDropNoInterfaceFound:vector(packetBytes):max -inf
scalar DsdvNetwork.host[19].ipv4.ip packetDropNoInterfaceFound:vector(packetBytes):starttime nan
scalar DsdvNetwork.host[19].ipv4.ip packetDropNoInterfaceFound:vector(packetBytes):endtime nan
scalar DsdvNetwork.host[19].ipv4.ip packetDropNoRouteFound:vector(packetBytes):count 0
scalar DsdvNetwork.host[19].ipv4.ip packetDropNoRouteFound:vector(packetBytes):sum 0
scalar DsdvNetwork.host[19].ipv4.ip packetDropNoRouteFound:vector(packetBytes):sumweights 0
scalar DsdvNetwork.host[19].ipv4.ip packetDropNoRouteFound:vector(packetBytes):mean nan
scalar DsdvNetwork.host[19].ipv4.ip packetDropNoRouteFound:vector(packetBytes):stddev nan
scalar DsdvNetwork.host[19].ipv4.ip packetDropNoRouteFound:vector(packetBytes):min inf
scalar DsdvNetwork.host[19].ipv4.ip packetDropNoRouteFound:vector(packetBytes):max -inf
scalar DsdvNetwork.host[19].ipv4.ip packetDropNoRouteFound:vector(packetBytes):starttime nan
scalar DsdvNetwork.host[19].ipv4.ip packetDropNoRouteFound:vector(packetBytes):endtime nan
scalar DsdvNetwork.host[19].ipv4.ip packetDropUndefined:vector(packetBytes):count 0
scalar DsdvNetwork.host[19].ipv4.ip packetDropUndefined:vector(packetBytes):sum 0
scalar DsdvNetwork.host[19].ipv4.ip packetDropUndefined:vector(packetBytes):sumweights 0
scalar DsdvNetwork.host[19].ipv4.ip packetDropUndefined:vector(packetBytes):mean nan
scalar DsdvNetwork.host[19].ipv4.ip packetDropUndefined:vector(packetBytes):stddev nan
scalar DsdvNetwork.host[19].ipv4.ip packetDropUndefined:vector(packetBytes):min inf
scalar DsdvNetwork.host[19].ipv4.ip packetDropUndefined:vector(packetBytes):max -inf
scalar DsdvNetwork.host[19].ipv4.ip packetDropUndefined:vector(packetBytes):starttime nan
scalar DsdvNetwork.host[19].ipv4.ip packetDropUndefined:vector(packetBytes):endtime nan
scalar DsdvNetwork.host[19].ipv4.arp arpRequestSent:vector(packetBytes):count 1
scalar DsdvNetwork.host[19].ipv4.arp arpRequestSent:vector(packetBytes):sum 28
scalar DsdvNetwork.host[19].ipv4.arp arpRequestSent:vector(packetBytes):sumweights 1
scalar DsdvNetwork.host[19].ipv4.arp arpRequestSent:vector(packetBytes):mean 28
scalar DsdvNetwork.host[19].ipv4.arp arpRequestSent:vector(packetBytes):stddev nan
scalar DsdvNetwork.host[19].ipv4.arp arpRequestSent:vector(packetBytes):min 28
scalar DsdvNetwork.host[19].ipv4.arp arpRequestSent:vector(packetBytes):max 28
scalar DsdvNetwork.host[19].ipv4.arp arpRequestSent:vector(packetBytes):starttime 7.2063254166330015
scalar DsdvNetwork.host[19].ipv4.arp arpRequestSent:vector(packetBytes):endtime 7.2063254166330015
scalar DsdvNetwork.host[19].ipv4.arp arpReplySent:vector(packetBytes):count 1
scalar DsdvNetwork.host[19].ipv4.arp arpReplySent:vector(packetBytes):sum 28
scalar DsdvNetwork.host[19].ipv4.arp arpReplySent:vector(packetBytes):sumweights 1
scalar DsdvNetwork.host[19].ipv4.arp arpReplySent:vector(packetBytes):mean 28
scalar DsdvNetwork.host[19].ipv4.arp arpReplySent:vector(packetBytes):stddev nan
scalar DsdvNetwork.host[19].ipv4.arp arpReplySent:vector(packetBytes):min 28
scalar DsdvNetwork.host[19].ipv4.arp arpReplySent:vector(packetBytes):max 28
scalar DsdvNetwork.host[19].ipv4.arp arpReplySent:vector(packetBytes):starttime 7.204806096509001
scalar DsdvNetwork.host[19].ipv4.arp arpReplySent:vector(packetBytes):endtime 7.204806096509001
scalar DsdvNetwork.host[19].ipv6.neighbourDiscovery startDad:vector:count 1
scalar DsdvNetwork.host[19].ipv6.neighbourDiscovery startDad:vector:sum 1
scalar DsdvNetwork.host[19].ipv6.neighbourDiscovery startDad:vector:sumweights 1
scalar DsdvNetwork.host[19].ipv6.neighbourDiscovery startDad:vector:mean 1
scalar DsdvNetwork.host[19].ipv6.neighbourDiscovery startDad:vector:stddev nan
scalar DsdvNetwork.host[19].ipv6.neighbourDiscovery startDad:vector:min 1
scalar DsdvNetwork.host[19].ipv6.neighbourDiscovery startDad:vector:max 1
scalar DsdvNetwork.host[19].ipv6.neighbourDiscovery startDad:vector:starttime 0.10785237061800002
scalar DsdvNetwork.host[19].ipv6.neighbourDiscovery startDad:vector:endtime 0.10785237061800002
scalar DsdvNetwork.host[19].ipv6.neighbourDiscovery dadCompleted:vector:count 1
scalar DsdvNetwork.host[19].ipv6.neighbourDiscovery dadCompleted:vector:sum 1
scalar DsdvNetwork.host[19].ipv6.neighbourDiscovery dadCompleted:vector:sumweights 1
scalar DsdvNetwork.host[19].ipv6.neighbourDiscovery dadCompleted:vector:mean 1
scalar DsdvNetwork.host[19].ipv6.neighbourDiscovery dadCompleted:vector:stddev nan
scalar DsdvNetwork.host[19].ipv6.neighbourDiscovery dadCompleted:vector:min 1
scalar DsdvNetwork.host[19].ipv6.neighbourDiscovery dadCompleted:vector:max 1
scalar DsdvNetwork.host[19].ipv6.neighbourDiscovery dadCompleted:vector:starttime 2.0574234220200007
scalar DsdvNetwork.host[19].ipv6.neighbourDiscovery dadCompleted:vector:endtime 2.0574234220200007
scalar DsdvNetwork.host[19].ipv6.neighbourDiscovery dadFailed:vector:count 0
scalar DsdvNetwork.host[19].ipv6.neighbourDiscovery dadFailed:vector:sum 0
scalar DsdvNetwork.host[19].ipv6.neighbourDiscovery dadFailed:vector:sumweights 0
scalar DsdvNetwork.host[19].ipv6.neighbourDiscovery dadFailed:vector:mean nan
scalar DsdvNetwork.host[19].ipv6.neighbourDiscovery dadFailed:vector:stddev nan
scalar DsdvNetwork.host[19].ipv6.neighbourDiscovery dadFailed:vector:min inf
scalar DsdvNetwork.host[19].ipv6.neighbourDiscovery dadFailed:vector:max -inf
scalar DsdvNetwork.host[19].ipv6.neighbourDiscovery dadFailed:vector:starttime nan
scalar DsdvNetwork.host[19].ipv6.neighbourDiscovery dadFailed:vector:endtime nan
scalar DsdvNetwork.host[19].udp packetSent:vector(packetBytes):count 0
scalar DsdvNetwork.host[19].udp packetSent:vector(packetBytes):sum 0
scalar DsdvNetwork.host[19].udp packetSent:vector(packetBytes):sumweights 0
scalar DsdvNetwork.host[19].udp packetSent:vector(packetBytes):mean nan
scalar DsdvNetwork.host[19].udp packetSent:vector(packetBytes):stddev nan
scalar DsdvNetwork.host[19].udp packetSent:vector(packetBytes):min inf
scalar DsdvNetwork.host[19].udp packetSent:vector(packetBytes):max -inf
scalar DsdvNetwork.host[19].udp packetSent:vector(packetBytes):starttime nan
scalar DsdvNetwork.host[19].udp packetSent:vector(packetBytes):endtime nan
scalar DsdvNetwork.host[19].udp outgoingDataRate:vector:count 100
scalar DsdvNetwork.host[19].udp outgoingDataRate:vector:sum 0
scalar DsdvNetwork.host[19].udp outgoingDataRate:vector:sumweights 100
scalar DsdvNetwork.host[19].udp outgoingDataRate:vector:mean 0
scalar DsdvNetwork.host[19].udp outgoingDataRate:vector:stddev 0
scalar DsdvNetwork.host[19].udp outgoingDataRate:vector:min 0
scalar DsdvNetwork.host[19].udp outgoingDataRate:vector:max 0
scalar DsdvNetwork.host[19].udp outgoingDataRate:vector:starttime 0.1
scalar DsdvNetwork.host[19].udp outgoingDataRate:vector:endtime 10
scalar DsdvNetwork.host[19].udp packetReceived:vector(packetBytes):count 0
scalar DsdvNetwork.host[19].udp packetReceived:vector(packetBytes):sum 0
scalar DsdvNetwork.host[19].udp packetReceived:vector(packetBytes):sumweights 0
scalar DsdvNetwork.host[19].udp packetReceived:vector(packetBytes):mean nan
scalar DsdvNetwork.host[19].udp packetReceived:vector(packetBytes):stddev nan
scalar DsdvNetwork.host[19].udp packetReceived:vector(packetBytes):min inf
scalar DsdvNetwork.host[19].udp packetReceived:vector(packetBytes):max -inf
scalar DsdvNetwork.host[19].udp packetReceived:vector(packetBytes):starttime nan
scalar DsdvNetwork.host[19].udp packetReceived:vector(packetBytes):endtime nan
scalar DsdvNetwork.host[19].udp passedUpPk:vector(count):count 1
scalar DsdvNetwork.host[19].udp passedUpPk:vector(count):sum 0
scalar DsdvNetwork.host[19].udp passedUpPk:vector(count):sumweights 1
scalar DsdvNetwork.host[19].udp passedUpPk:vector(count):mean 0
scalar DsdvNetwork.host[19].udp passedUpPk:vector(count):stddev nan
scalar DsdvNetwork.host[19].udp passedUpPk:vector(count):min 0
scalar DsdvNetwork.host[19].udp passedUpPk:vector(count):max 0
scalar DsdvNetwork.host[19].udp passedUpPk:vector(count):starttime 0
scalar DsdvNetwork.host[19].udp passedUpPk:vector(count):endtime 0
scalar DsdvNetwork.host[19].udp droppedPkWrongPort:vector(count):count 1
scalar DsdvNetwork.host[19].udp droppedPkWrongPort:vector(count):sum 0
scalar DsdvNetwork.host[19].udp droppedPkWrongPort:vector(count):sumweights 1
scalar DsdvNetwork.host[19].udp droppedPkWrongPort:vector(count):mean 0
scalar DsdvNetwork.host[19].udp droppedPkWrongPort:vector(count):stddev nan
scalar DsdvNetwork.host[19].udp droppedPkWrongPort:vector(count):min 0
scalar DsdvNetwork.host[19].udp droppedPkWrongPort:vector(count):max 0
scalar DsdvNetwork.host[19].udp droppedPkWrongPort:vector(count):starttime 0
scalar DsdvNetwork.host[19].udp droppedPkWrongPort:vector(count):endtime 0
scalar DsdvNetwork.host[19].udp droppedPkBadChecksum:vector(count):count 1
scalar DsdvNetwork.host[19].udp droppedPkBadChecksum:vector(count):sum 0
scalar DsdvNetwork.host[19].udp droppedPkBadChecksum:vector(count):sumweights 1
scalar DsdvNetwork.host[19].udp droppedPkBadChecksum:vector(count):mean 0
scalar DsdvNetwork.host[19].udp droppedPkBadChecksum:vector(count):stddev nan
scalar DsdvNetwork.host[19].udp droppedPkBadChecksum:vector(count):min 0
scalar DsdvNetwork.host[19].udp droppedPkBadChecksum:vector(count):max 0
scalar DsdvNetwork.host[19].udp droppedPkBadChecksum:vector(count):starttime 0
scalar DsdvNetwork.host[19].udp droppedPkBadChecksum:vector(count):endtime 0

