version 3
run General-0-20260121-12:52:50-166087
attr configname General
attr datetime 20260121-12:52:50
attr datetimef 20260121-125250
attr experiment General
attr inifile omnetpp.ini
attr iterationvars "$initialMaxData=65kB, $delay=5, $mtu=1280"
attr iterationvarsd initialMaxData=65kB/delay=5/mtu=1280
attr iterationvarsf initialMaxData=65kB,delay=5,mtu=1280-
attr measurement "$initialMaxData=65kB, $delay=5, $mtu=1280"
attr network bottleneck
attr processid 166087
attr repetition 0
attr replication #0
attr resultdir results
attr runnumber 0
attr seedset 0
itervar delay 5
itervar initialMaxData 65kB
itervar mtu 1280
config **.param-recording false
config image-path /home/attila/projects/inet/images
config output-scalar-file results/omnetpp.ini-General-#0.sca
config output-scalar-precision 17
config output-vector-file results/omnetpp.ini-General-#0.vec
config output-vector-precision 17
config record-eventlog false
config network bottleneck
config output-vector-file results/flow_control_validation_initialMaxData=65kB_delay=5.vec
config output-scalar-file results/flow_control_validation_initialMaxData=65kB_delay=5.sca
config **.quic.typename Quic
config **.receiver.quic.initialMaxData 4294967295B
config **.receiver.quic.initialMaxStreamData 65kB
config **.receiver.quic.maxStreamDataFrameThreshold 0.5*65kB
config **.receiver.quic.roundConsumedDataValue true
config **.receiver.quic.sendMaxDataFramesImmediately true
config **.sender.quic.congestionControl "\"No\""
config **.linkDelay 5ms
config **.ppp[*].queue.packetCapacity 1000
config **.ppp[*].ppp.mtu 1280B
config **.sender.numApps 1
config **.sender.app[*].typename TrafficgenCompound
config **.sender.app[0].numGenerators 1
config **.sender.app[0].generator[0].typename TrafficgenSimple
config **.sender.app[0].generator[0].id 0
config **.sender.app[0].generator[0].packetSize 2*65kB
config **.sender.app[0].generator[0].startTime 2s
config **.sender.app[0].generator[0].stopTime 4s
config **.sender.app[0].generator[0].packetInterval 0ms
config **.sender.app[0].generator[0].ordered false
config **.sender.quic.sendQueueLimit 4*65kB
config **.sender.quic.sendQueueLowWaterRatio .6
config **.sender.app[*].handler.typename QuicTrafficgen
config **.sender.app[*].handler.localPort 1001
config **.sender.app[*].handler.connectPort 1000
config **.sender.app[*].handler.connectAddress "\"receiver\""
config **.receiver.numApps 1
config **.receiver.app[*].typename QuicDiscardServer
config **.receiver.app[*].localAddress "\"\""
config **.receiver.app[*].localPort 1000

scalar bottleneck.sender.lo[0].lo rcvdPkFromHl:count 0
scalar bottleneck.sender.lo[0].lo rcvdPkFromHl:sum(packetBytes) 0
scalar bottleneck.sender.lo[0].lo passedUpPk:count 0
scalar bottleneck.sender.lo[0].lo passedUpPk:sum(packetBytes) 0
scalar bottleneck.sender.lo[0] packetDropInterfaceDown:count 0
scalar bottleneck.sender.lo[0] packetDropInterfaceDown:sum(packetBytes) 0
scalar bottleneck.sender.lo[0] packetDropNoCarrier:count 0
scalar bottleneck.sender.lo[0] packetDropNoCarrier:sum(packetBytes) 0
scalar bottleneck.sender.ppp[0].queue queueLength:last 0
scalar bottleneck.sender.ppp[0].queue queueLength:max 52
scalar bottleneck.sender.ppp[0].queue queueLength:timeavg 0.00035315290002341156
scalar bottleneck.sender.ppp[0].queue queueBitLength:last 0
scalar bottleneck.sender.ppp[0].queue queueBitLength:max 530352
scalar bottleneck.sender.ppp[0].queue queueBitLength:timeavg 3.4657610740198441
scalar bottleneck.sender.ppp[0].queue outgoingPackets:count 10832
scalar bottleneck.sender.ppp[0].queue outgoingPacketLengths:sum 108292120
scalar bottleneck.sender.ppp[0].queue incomingPackets:count 10832
scalar bottleneck.sender.ppp[0].queue incomingPacketLengths:sum 108292120
scalar bottleneck.sender.ppp[0].queue droppedPacketsQueueOverflow:count 0
scalar bottleneck.sender.ppp[0].queue droppedPacketLengthsQueueOverflow:sum 0
scalar bottleneck.sender.ppp[0].ppp transmissionState:timeavg 2.6476699647906632e-05
scalar bottleneck.sender.ppp[0].ppp rxPkOk:count 5605
scalar bottleneck.sender.ppp[0].ppp rxPkOk:sum(packetBytes) 305044
scalar bottleneck.sender.ppp[0].ppp txPk:count 10832
scalar bottleneck.sender.ppp[0].ppp txPk:sum(packetBytes) 13612339
scalar bottleneck.sender.ppp[0].ppp rcvdPkFromHl:count 10832
scalar bottleneck.sender.ppp[0].ppp rcvdPkFromHl:sum(packetBytes) 13536515
scalar bottleneck.sender.ppp[0].ppp passedUpPk:count 5605
scalar bottleneck.sender.ppp[0].ppp passedUpPk:sum(packetBytes) 265809
scalar bottleneck.sender.ppp[0].ppp packetDropIncorrectlyReceived:count 0
scalar bottleneck.sender.ppp[0].ppp packetDropIncorrectlyReceived:sum(packetBytes) 0
scalar bottleneck.sender.ppp[0].ppp packetDropInterfaceDown:count 0
scalar bottleneck.sender.ppp[0].ppp packetDropInterfaceDown:sum(packetBytes) 0
scalar bottleneck.sender.ppp[0] packetDropInterfaceDown:count 0
scalar bottleneck.sender.ppp[0] packetDropInterfaceDown:sum(packetBytes) 0
scalar bottleneck.sender.ppp[0] packetDropNoCarrier:count 0
scalar bottleneck.sender.ppp[0] packetDropNoCarrier:sum(packetBytes) 0
scalar bottleneck.sender.ipv4.ip packetDropAddressResolutionFailed:count 0
scalar bottleneck.sender.ipv4.ip packetDropAddressResolutionFailed:sum(packetBytes) 0
scalar bottleneck.sender.ipv4.ip packetDropHopLimitReached:count 0
scalar bottleneck.sender.ipv4.ip packetDropHopLimitReached:sum(packetBytes) 0
scalar bottleneck.sender.ipv4.ip packetDropForwardingDisabled:count 0
scalar bottleneck.sender.ipv4.ip packetDropForwardingDisabled:sum(packetBytes) 0
scalar bottleneck.sender.ipv4.ip packetDropLifetimeExpired:count 0
scalar bottleneck.sender.ipv4.ip packetDropLifetimeExpired:sum(packetBytes) 0
scalar bottleneck.sender.ipv4.ip packetDropNoInterfaceFound:count 0
scalar bottleneck.sender.ipv4.ip packetDropNoInterfaceFound:sum(packetBytes) 0
scalar bottleneck.sender.ipv4.ip packetDropNoRouteFound:count 0
scalar bottleneck.sender.ipv4.ip packetDropNoRouteFound:sum(packetBytes) 0
scalar bottleneck.sender.ipv4.ip packetDropUndefined:count 0
scalar bottleneck.sender.ipv4.ip packetDropUndefined:sum(packetBytes) 0
scalar bottleneck.sender.ipv4.arp arpResolutionFailed:count 0
scalar bottleneck.sender.ipv4.arp arpResolutionCompleted:count 0
scalar bottleneck.sender.ipv4.arp arpResolutionInitiated:count 0
scalar bottleneck.sender.ipv4.arp arpReplySent:count 0
scalar bottleneck.sender.ipv4.arp arpReplySent:sum(packetBytes) 0
scalar bottleneck.sender.ipv4.arp arpRequestSent:count 0
scalar bottleneck.sender.ipv4.arp arpRequestSent:sum(packetBytes) 0
scalar bottleneck.sender.udp packetReceived:count 5605
scalar bottleneck.sender.udp packetReceived:sum(packetBytes) 153709
scalar bottleneck.sender.udp packetSent:count 10832
scalar bottleneck.sender.udp packetSent:sum(packetBytes) 13319875
scalar bottleneck.sender.udp passedUpPk:count 5605
scalar bottleneck.sender.udp droppedPkWrongPort:count 0
scalar bottleneck.sender.udp droppedPkBadChecksum:count 0
scalar bottleneck.sender.quic maxDataFrameLostCount_cid=0_sid=0:last 0
scalar bottleneck.sender.quic generatedMaxDataFrameCount_cid=0_sid=0:last 0
scalar bottleneck.sender.quic rcvBlockFrameCount_cid=0_sid=0:last 0
scalar bottleneck.sender.quic rcvMaxFrameCount_cid=0_sid=0:last 398
scalar bottleneck.sender.quic generatedBlockFrameCount_cid=0_sid=0:last 399
scalar bottleneck.sender.quic maxDataFrameLostCount_cid=0:last 0
scalar bottleneck.sender.quic generatedMaxDataFrameCount_cid=0:last 0
scalar bottleneck.sender.quic rcvBlockFrameCount_cid=0:last 0
scalar bottleneck.sender.quic rcvMaxFrameCount_cid=0:last 0
scalar bottleneck.sender.quic generatedBlockFrameCount_cid=0:last 0
scalar bottleneck.sender.quic packetReceived:count 5605
scalar bottleneck.sender.quic packetReceived:sum(packetBytes) 108869
scalar bottleneck.sender.quic packetSent:count 10832
scalar bottleneck.sender.quic packetSent:sum(packetBytes) 13233219
scalar bottleneck.sender.app[0].generator[0] sentPkt:count 401
scalar bottleneck.sender.app[0].generator[0] sentPkt:sum(packetBytes) 52130000
scalar bottleneck.router1.lo[0].lo rcvdPkFromHl:count 0
scalar bottleneck.router1.lo[0].lo rcvdPkFromHl:sum(packetBytes) 0
scalar bottleneck.router1.lo[0].lo passedUpPk:count 0
scalar bottleneck.router1.lo[0].lo passedUpPk:sum(packetBytes) 0
scalar bottleneck.router1.lo[0] packetDropInterfaceDown:count 0
scalar bottleneck.router1.lo[0] packetDropInterfaceDown:sum(packetBytes) 0
scalar bottleneck.router1.lo[0] packetDropNoCarrier:count 0
scalar bottleneck.router1.lo[0] packetDropNoCarrier:sum(packetBytes) 0
scalar bottleneck.router1.ppp[0].queue queueLength:last 0
scalar bottleneck.router1.ppp[0].queue queueLength:max 0
scalar bottleneck.router1.ppp[0].queue queueLength:timeavg 0
scalar bottleneck.router1.ppp[0].queue queueBitLength:last 0
scalar bottleneck.router1.ppp[0].queue queueBitLength:max 0
scalar bottleneck.router1.ppp[0].queue queueBitLength:timeavg 0
scalar bottleneck.router1.ppp[0].queue outgoingPackets:count 5605
scalar bottleneck.router1.ppp[0].queue outgoingPacketLengths:sum 2126472
scalar bottleneck.router1.ppp[0].queue incomingPackets:count 5605
scalar bottleneck.router1.ppp[0].queue incomingPacketLengths:sum 2126472
scalar bottleneck.router1.ppp[0].queue droppedPacketsQueueOverflow:count 0
scalar bottleneck.router1.ppp[0].queue droppedPacketLengthsQueueOverflow:sum 0
scalar bottleneck.router1.ppp[0].ppp transmissionState:timeavg 5.9332627312582305e-07
scalar bottleneck.router1.ppp[0].ppp rxPkOk:count 10832
scalar bottleneck.router1.ppp[0].ppp rxPkOk:sum(packetBytes) 13612339
scalar bottleneck.router1.ppp[0].ppp txPk:count 5605
scalar bottleneck.router1.ppp[0].ppp txPk:sum(packetBytes) 305044
scalar bottleneck.router1.ppp[0].ppp rcvdPkFromHl:count 5605
scalar bottleneck.router1.ppp[0].ppp rcvdPkFromHl:sum(packetBytes) 265809
scalar bottleneck.router1.ppp[0].ppp passedUpPk:count 10832
scalar bottleneck.router1.ppp[0].ppp passedUpPk:sum(packetBytes) 13536515
scalar bottleneck.router1.ppp[0].ppp packetDropIncorrectlyReceived:count 0
scalar bottleneck.router1.ppp[0].ppp packetDropIncorrectlyReceived:sum(packetBytes) 0
scalar bottleneck.router1.ppp[0].ppp packetDropInterfaceDown:count 0
scalar bottleneck.router1.ppp[0].ppp packetDropInterfaceDown:sum(packetBytes) 0
scalar bottleneck.router1.ppp[0] packetDropInterfaceDown:count 0
scalar bottleneck.router1.ppp[0] packetDropInterfaceDown:sum(packetBytes) 0
scalar bottleneck.router1.ppp[0] packetDropNoCarrier:count 0
scalar bottleneck.router1.ppp[0] packetDropNoCarrier:sum(packetBytes) 0
scalar bottleneck.router1.ppp[1].queue queueLength:last 0
scalar bottleneck.router1.ppp[1].queue queueLength:max 47
scalar bottleneck.router1.ppp[1].queue queueLength:timeavg 0.0031793597963638283
scalar bottleneck.router1.ppp[1].queue queueBitLength:last 0
scalar bottleneck.router1.ppp[1].queue queueBitLength:max 479152
scalar bottleneck.router1.ppp[1].queue queueBitLength:timeavg 31.198575432667283
scalar bottleneck.router1.ppp[1].queue outgoingPackets:count 10832
scalar bottleneck.router1.ppp[1].queue outgoingPacketLengths:sum 108292120
scalar bottleneck.router1.ppp[1].queue incomingPackets:count 10832
scalar bottleneck.router1.ppp[1].queue incomingPacketLengths:sum 108292120
scalar bottleneck.router1.ppp[1].queue droppedPacketsQueueOverflow:count 0
scalar bottleneck.router1.ppp[1].queue droppedPacketLengthsQueueOverflow:sum 0
scalar bottleneck.router1.ppp[1].ppp transmissionState:timeavg 0.00026476699647905465
scalar bottleneck.router1.ppp[1].ppp rxPkOk:count 5605
scalar bottleneck.router1.ppp[1].ppp rxPkOk:sum(packetBytes) 305044
scalar bottleneck.router1.ppp[1].ppp txPk:count 10832
scalar bottleneck.router1.ppp[1].ppp txPk:sum(packetBytes) 13612339
scalar bottleneck.router1.ppp[1].ppp rcvdPkFromHl:count 10832
scalar bottleneck.router1.ppp[1].ppp rcvdPkFromHl:sum(packetBytes) 13536515
scalar bottleneck.router1.ppp[1].ppp passedUpPk:count 5605
scalar bottleneck.router1.ppp[1].ppp passedUpPk:sum(packetBytes) 265809
scalar bottleneck.router1.ppp[1].ppp packetDropIncorrectlyReceived:count 0
scalar bottleneck.router1.ppp[1].ppp packetDropIncorrectlyReceived:sum(packetBytes) 0
scalar bottleneck.router1.ppp[1].ppp packetDropInterfaceDown:count 0
scalar bottleneck.router1.ppp[1].ppp packetDropInterfaceDown:sum(packetBytes) 0
scalar bottleneck.router1.ppp[1] packetDropInterfaceDown:count 0
scalar bottleneck.router1.ppp[1] packetDropInterfaceDown:sum(packetBytes) 0
scalar bottleneck.router1.ppp[1] packetDropNoCarrier:count 0
scalar bottleneck.router1.ppp[1] packetDropNoCarrier:sum(packetBytes) 0
scalar bottleneck.router1.ipv4.ip packetDropAddressResolutionFailed:count 0
scalar bottleneck.router1.ipv4.ip packetDropAddressResolutionFailed:sum(packetBytes) 0
scalar bottleneck.router1.ipv4.ip packetDropHopLimitReached:count 0
scalar bottleneck.router1.ipv4.ip packetDropHopLimitReached:sum(packetBytes) 0
scalar bottleneck.router1.ipv4.ip packetDropForwardingDisabled:count 0
scalar bottleneck.router1.ipv4.ip packetDropForwardingDisabled:sum(packetBytes) 0
scalar bottleneck.router1.ipv4.ip packetDropLifetimeExpired:count 0
scalar bottleneck.router1.ipv4.ip packetDropLifetimeExpired:sum(packetBytes) 0
scalar bottleneck.router1.ipv4.ip packetDropNoInterfaceFound:count 0
scalar bottleneck.router1.ipv4.ip packetDropNoInterfaceFound:sum(packetBytes) 0
scalar bottleneck.router1.ipv4.ip packetDropNoRouteFound:count 0
scalar bottleneck.router1.ipv4.ip packetDropNoRouteFound:sum(packetBytes) 0
scalar bottleneck.router1.ipv4.ip packetDropUndefined:count 0
scalar bottleneck.router1.ipv4.ip packetDropUndefined:sum(packetBytes) 0
scalar bottleneck.router1.ipv4.arp arpResolutionFailed:count 0
scalar bottleneck.router1.ipv4.arp arpResolutionCompleted:count 0
scalar bottleneck.router1.ipv4.arp arpResolutionInitiated:count 0
scalar bottleneck.router1.ipv4.arp arpReplySent:count 0
scalar bottleneck.router1.ipv4.arp arpReplySent:sum(packetBytes) 0
scalar bottleneck.router1.ipv4.arp arpRequestSent:count 0
scalar bottleneck.router1.ipv4.arp arpRequestSent:sum(packetBytes) 0
scalar bottleneck.router2.lo[0].lo rcvdPkFromHl:count 0
scalar bottleneck.router2.lo[0].lo rcvdPkFromHl:sum(packetBytes) 0
scalar bottleneck.router2.lo[0].lo passedUpPk:count 0
scalar bottleneck.router2.lo[0].lo passedUpPk:sum(packetBytes) 0
scalar bottleneck.router2.lo[0] packetDropInterfaceDown:count 0
scalar bottleneck.router2.lo[0] packetDropInterfaceDown:sum(packetBytes) 0
scalar bottleneck.router2.lo[0] packetDropNoCarrier:count 0
scalar bottleneck.router2.lo[0] packetDropNoCarrier:sum(packetBytes) 0
scalar bottleneck.router2.ppp[0].queue queueLength:last 0
scalar bottleneck.router2.ppp[0].queue queueLength:max 0
scalar bottleneck.router2.ppp[0].queue queueLength:timeavg 0
scalar bottleneck.router2.ppp[0].queue queueBitLength:last 0
scalar bottleneck.router2.ppp[0].queue queueBitLength:max 0
scalar bottleneck.router2.ppp[0].queue queueBitLength:timeavg 0
scalar bottleneck.router2.ppp[0].queue outgoingPackets:count 10832
scalar bottleneck.router2.ppp[0].queue outgoingPacketLengths:sum 108292120
scalar bottleneck.router2.ppp[0].queue incomingPackets:count 10832
scalar bottleneck.router2.ppp[0].queue incomingPacketLengths:sum 108292120
scalar bottleneck.router2.ppp[0].queue droppedPacketsQueueOverflow:count 0
scalar bottleneck.router2.ppp[0].queue droppedPacketLengthsQueueOverflow:sum 0
scalar bottleneck.router2.ppp[0].ppp transmissionState:timeavg 2.6476699647906632e-05
scalar bottleneck.router2.ppp[0].ppp rxPkOk:count 5605
scalar bottleneck.router2.ppp[0].ppp rxPkOk:sum(packetBytes) 305044
scalar bottleneck.router2.ppp[0].ppp txPk:count 10832
scalar bottleneck.router2.ppp[0].ppp txPk:sum(packetBytes) 13612339
scalar bottleneck.router2.ppp[0].ppp rcvdPkFromHl:count 10832
scalar bottleneck.router2.ppp[0].ppp rcvdPkFromHl:sum(packetBytes) 13536515
scalar bottleneck.router2.ppp[0].ppp passedUpPk:count 5605
scalar bottleneck.router2.ppp[0].ppp passedUpPk:sum(packetBytes) 265809
scalar bottleneck.router2.ppp[0].ppp packetDropIncorrectlyReceived:count 0
scalar bottleneck.router2.ppp[0].ppp packetDropIncorrectlyReceived:sum(packetBytes) 0
scalar bottleneck.router2.ppp[0].ppp packetDropInterfaceDown:count 0
scalar bottleneck.router2.ppp[0].ppp packetDropInterfaceDown:sum(packetBytes) 0
scalar bottleneck.router2.ppp[0] packetDropInterfaceDown:count 0
scalar bottleneck.router2.ppp[0] packetDropInterfaceDown:sum(packetBytes) 0
scalar bottleneck.router2.ppp[0] packetDropNoCarrier:count 0
scalar bottleneck.router2.ppp[0] packetDropNoCarrier:sum(packetBytes) 0
scalar bottleneck.router2.ppp[1].queue queueLength:last 0
scalar bottleneck.router2.ppp[1].queue queueLength:max 1
scalar bottleneck.router2.ppp[1].queue queueLength:timeavg 2.7386324351932847e-09
scalar bottleneck.router2.ppp[1].queue queueBitLength:last 0
scalar bottleneck.router2.ppp[1].queue queueBitLength:max 496
scalar bottleneck.router2.ppp[1].queue queueBitLength:timeavg 1.1037933546754024e-06
scalar bottleneck.router2.ppp[1].queue outgoingPackets:count 5605
scalar bottleneck.router2.ppp[1].queue outgoingPacketLengths:sum 2126472
scalar bottleneck.router2.ppp[1].queue incomingPackets:count 5605
scalar bottleneck.router2.ppp[1].queue incomingPacketLengths:sum 2126472
scalar bottleneck.router2.ppp[1].queue droppedPacketsQueueOverflow:count 0
scalar bottleneck.router2.ppp[1].queue droppedPacketLengthsQueueOverflow:sum 0
scalar bottleneck.router2.ppp[1].ppp transmissionState:timeavg 5.9332627312583663e-06
scalar bottleneck.router2.ppp[1].ppp rxPkOk:count 10832
scalar bottleneck.router2.ppp[1].ppp rxPkOk:sum(packetBytes) 13612339
scalar bottleneck.router2.ppp[1].ppp txPk:count 5605
scalar bottleneck.router2.ppp[1].ppp txPk:sum(packetBytes) 305044
scalar bottleneck.router2.ppp[1].ppp rcvdPkFromHl:count 5605
scalar bottleneck.router2.ppp[1].ppp rcvdPkFromHl:sum(packetBytes) 265809
scalar bottleneck.router2.ppp[1].ppp passedUpPk:count 10832
scalar bottleneck.router2.ppp[1].ppp passedUpPk:sum(packetBytes) 13536515
scalar bottleneck.router2.ppp[1].ppp packetDropIncorrectlyReceived:count 0
scalar bottleneck.router2.ppp[1].ppp packetDropIncorrectlyReceived:sum(packetBytes) 0
scalar bottleneck.router2.ppp[1].ppp packetDropInterfaceDown:count 0
scalar bottleneck.router2.ppp[1].ppp packetDropInterfaceDown:sum(packetBytes) 0
scalar bottleneck.router2.ppp[1] packetDropInterfaceDown:count 0
scalar bottleneck.router2.ppp[1] packetDropInterfaceDown:sum(packetBytes) 0
scalar bottleneck.router2.ppp[1] packetDropNoCarrier:count 0
scalar bottleneck.router2.ppp[1] packetDropNoCarrier:sum(packetBytes) 0
scalar bottleneck.router2.ipv4.ip packetDropAddressResolutionFailed:count 0
scalar bottleneck.router2.ipv4.ip packetDropAddressResolutionFailed:sum(packetBytes) 0
scalar bottleneck.router2.ipv4.ip packetDropHopLimitReached:count 0
scalar bottleneck.router2.ipv4.ip packetDropHopLimitReached:sum(packetBytes) 0
scalar bottleneck.router2.ipv4.ip packetDropForwardingDisabled:count 0
scalar bottleneck.router2.ipv4.ip packetDropForwardingDisabled:sum(packetBytes) 0
scalar bottleneck.router2.ipv4.ip packetDropLifetimeExpired:count 0
scalar bottleneck.router2.ipv4.ip packetDropLifetimeExpired:sum(packetBytes) 0
scalar bottleneck.router2.ipv4.ip packetDropNoInterfaceFound:count 0
scalar bottleneck.router2.ipv4.ip packetDropNoInterfaceFound:sum(packetBytes) 0
scalar bottleneck.router2.ipv4.ip packetDropNoRouteFound:count 0
scalar bottleneck.router2.ipv4.ip packetDropNoRouteFound:sum(packetBytes) 0
scalar bottleneck.router2.ipv4.ip packetDropUndefined:count 0
scalar bottleneck.router2.ipv4.ip packetDropUndefined:sum(packetBytes) 0
scalar bottleneck.router2.ipv4.arp arpResolutionFailed:count 0
scalar bottleneck.router2.ipv4.arp arpResolutionCompleted:count 0
scalar bottleneck.router2.ipv4.arp arpResolutionInitiated:count 0
scalar bottleneck.router2.ipv4.arp arpReplySent:count 0
scalar bottleneck.router2.ipv4.arp arpReplySent:sum(packetBytes) 0
scalar bottleneck.router2.ipv4.arp arpRequestSent:count 0
scalar bottleneck.router2.ipv4.arp arpRequestSent:sum(packetBytes) 0
scalar bottleneck.receiver.lo[0].lo rcvdPkFromHl:count 0
scalar bottleneck.receiver.lo[0].lo rcvdPkFromHl:sum(packetBytes) 0
scalar bottleneck.receiver.lo[0].lo passedUpPk:count 0
scalar bottleneck.receiver.lo[0].lo passedUpPk:sum(packetBytes) 0
scalar bottleneck.receiver.lo[0] packetDropInterfaceDown:count 0
scalar bottleneck.receiver.lo[0] packetDropInterfaceDown:sum(packetBytes) 0
scalar bottleneck.receiver.lo[0] packetDropNoCarrier:count 0
scalar bottleneck.receiver.lo[0] packetDropNoCarrier:sum(packetBytes) 0
scalar bottleneck.receiver.ppp[0].queue queueLength:last 0
scalar bottleneck.receiver.ppp[0].queue queueLength:max 1
scalar bottleneck.receiver.ppp[0].queue queueLength:timeavg 3.0731812838106457e-10
scalar bottleneck.receiver.ppp[0].queue queueBitLength:last 0
scalar bottleneck.receiver.ppp[0].queue queueBitLength:max 496
scalar bottleneck.receiver.ppp[0].queue queueBitLength:timeavg 1.241876446890773e-07
scalar bottleneck.receiver.ppp[0].queue outgoingPackets:count 5605
scalar bottleneck.receiver.ppp[0].queue outgoingPacketLengths:sum 2126472
scalar bottleneck.receiver.ppp[0].queue incomingPackets:count 5605
scalar bottleneck.receiver.ppp[0].queue incomingPacketLengths:sum 2126472
scalar bottleneck.receiver.ppp[0].queue droppedPacketsQueueOverflow:count 0
scalar bottleneck.receiver.ppp[0].queue droppedPacketLengthsQueueOverflow:sum 0
scalar bottleneck.receiver.ppp[0].ppp transmissionState:timeavg 5.9332627312582305e-07
scalar bottleneck.receiver.ppp[0].ppp rxPkOk:count 10832
scalar bottleneck.receiver.ppp[0].ppp rxPkOk:sum(packetBytes) 13612339
scalar bottleneck.receiver.ppp[0].ppp txPk:count 5605
scalar bottleneck.receiver.ppp[0].ppp txPk:sum(packetBytes) 305044
scalar bottleneck.receiver.ppp[0].ppp rcvdPkFromHl:count 5605
scalar bottleneck.receiver.ppp[0].ppp rcvdPkFromHl:sum(packetBytes) 265809
scalar bottleneck.receiver.ppp[0].ppp passedUpPk:count 10832
scalar bottleneck.receiver.ppp[0].ppp passedUpPk:sum(packetBytes) 13536515
scalar bottleneck.receiver.ppp[0].ppp packetDropIncorrectlyReceived:count 0
scalar bottleneck.receiver.ppp[0].ppp packetDropIncorrectlyReceived:sum(packetBytes) 0
scalar bottleneck.receiver.ppp[0].ppp packetDropInterfaceDown:count 0
scalar bottleneck.receiver.ppp[0].ppp packetDropInterfaceDown:sum(packetBytes) 0
scalar bottleneck.receiver.ppp[0] packetDropInterfaceDown:count 0
scalar bottleneck.receiver.ppp[0] packetDropInterfaceDown:sum(packetBytes) 0
scalar bottleneck.receiver.ppp[0] packetDropNoCarrier:count 0
scalar bottleneck.receiver.ppp[0] packetDropNoCarrier:sum(packetBytes) 0
scalar bottleneck.receiver.ipv4.ip packetDropAddressResolutionFailed:count 0
scalar bottleneck.receiver.ipv4.ip packetDropAddressResolutionFailed:sum(packetBytes) 0
scalar bottleneck.receiver.ipv4.ip packetDropHopLimitReached:count 0
scalar bottleneck.receiver.ipv4.ip packetDropHopLimitReached:sum(packetBytes) 0
scalar bottleneck.receiver.ipv4.ip packetDropForwardingDisabled:count 0
scalar bottleneck.receiver.ipv4.ip packetDropForwardingDisabled:sum(packetBytes) 0
scalar bottleneck.receiver.ipv4.ip packetDropLifetimeExpired:count 0
scalar bottleneck.receiver.ipv4.ip packetDropLifetimeExpired:sum(packetBytes) 0
scalar bottleneck.receiver.ipv4.ip packetDropNoInterfaceFound:count 0
scalar bottleneck.receiver.ipv4.ip packetDropNoInterfaceFound:sum(packetBytes) 0
scalar bottleneck.receiver.ipv4.ip packetDropNoRouteFound:count 0
scalar bottleneck.receiver.ipv4.ip packetDropNoRouteFound:sum(packetBytes) 0
scalar bottleneck.receiver.ipv4.ip packetDropUndefined:count 0
scalar bottleneck.receiver.ipv4.ip packetDropUndefined:sum(packetBytes) 0
scalar bottleneck.receiver.ipv4.arp arpResolutionFailed:count 0
scalar bottleneck.receiver.ipv4.arp arpResolutionCompleted:count 0
scalar bottleneck.receiver.ipv4.arp arpResolutionInitiated:count 0
scalar bottleneck.receiver.ipv4.arp arpReplySent:count 0
scalar bottleneck.receiver.ipv4.arp arpReplySent:sum(packetBytes) 0
scalar bottleneck.receiver.ipv4.arp arpRequestSent:count 0
scalar bottleneck.receiver.ipv4.arp arpRequestSent:sum(packetBytes) 0
scalar bottleneck.receiver.udp packetReceived:count 10832
scalar bottleneck.receiver.udp packetReceived:sum(packetBytes) 13319875
scalar bottleneck.receiver.udp packetSent:count 5605
scalar bottleneck.receiver.udp packetSent:sum(packetBytes) 153709
scalar bottleneck.receiver.udp passedUpPk:count 10832
scalar bottleneck.receiver.udp droppedPkWrongPort:count 0
scalar bottleneck.receiver.udp droppedPkBadChecksum:count 0
scalar bottleneck.receiver.quic maxDataFrameLostCount_cid=0_sid=0:last 0
scalar bottleneck.receiver.quic generatedMaxDataFrameCount_cid=0_sid=0:last 400
scalar bottleneck.receiver.quic rcvBlockFrameCount_cid=0_sid=0:last 399
scalar bottleneck.receiver.quic rcvMaxFrameCount_cid=0_sid=0:last 0
scalar bottleneck.receiver.quic generatedBlockFrameCount_cid=0_sid=0:last 0
scalar bottleneck.receiver.quic maxDataFrameLostCount_cid=0:last 0
scalar bottleneck.receiver.quic generatedMaxDataFrameCount_cid=0:last 0
scalar bottleneck.receiver.quic rcvBlockFrameCount_cid=0:last 0
scalar bottleneck.receiver.quic rcvMaxFrameCount_cid=0:last 0
scalar bottleneck.receiver.quic generatedBlockFrameCount_cid=0:last 0
scalar bottleneck.receiver.quic packetReceived:count 10832
scalar bottleneck.receiver.quic packetReceived:sum(packetBytes) 13233219
scalar bottleneck.receiver.quic packetSent:count 5605
scalar bottleneck.receiver.quic packetSent:sum(packetBytes) 108869
scalar bottleneck.sender.ppp[0].queue queueingTime:histogram:count 10832
scalar bottleneck.sender.ppp[0].queue queueingTime:histogram:sumweights 10832
scalar bottleneck.sender.ppp[0].queue queueingTime:histogram:mean 1.3409513441654157e-07
scalar bottleneck.sender.ppp[0].queue queueingTime:histogram:stddev 8.1512153979101538e-08
scalar bottleneck.sender.ppp[0].queue queueingTime:histogram:min 0
scalar bottleneck.sender.ppp[0].queue queueingTime:histogram:max 5.3539199999999998e-07
scalar bottleneck.sender.ppp[0].queue queueingTime:histogram:numbins 67
scalar bottleneck.sender.ppp[0].queue queueingTime:histogram:rangemin 0
scalar bottleneck.sender.ppp[0].queue queueingTime:histogram:rangemax 6.7000000000000015e-07
scalar bottleneck.sender.ppp[0].queue queueingTime:histogram:underflows 0
scalar bottleneck.sender.ppp[0].queue queueingTime:histogram:overflows 0
scalar bottleneck.sender.ppp[0].queue outgoingPacketLengths:histogram:count 10832
scalar bottleneck.sender.ppp[0].queue outgoingPacketLengths:histogram:sumweights 10832
scalar bottleneck.sender.ppp[0].queue outgoingPacketLengths:histogram:mean 9997.4261447562785
scalar bottleneck.sender.ppp[0].queue outgoingPacketLengths:histogram:stddev 1211.1620316807798
scalar bottleneck.sender.ppp[0].queue outgoingPacketLengths:histogram:min 344
scalar bottleneck.sender.ppp[0].queue outgoingPacketLengths:histogram:max 10240
scalar bottleneck.sender.ppp[0].queue outgoingPacketLengths:histogram:numbins 64
scalar bottleneck.sender.ppp[0].queue outgoingPacketLengths:histogram:rangemin 0
scalar bottleneck.sender.ppp[0].queue outgoingPacketLengths:histogram:rangemax 12800
scalar bottleneck.sender.ppp[0].queue outgoingPacketLengths:histogram:underflows 0
scalar bottleneck.sender.ppp[0].queue outgoingPacketLengths:histogram:overflows 0
scalar bottleneck.sender.ppp[0].queue flowQueueingTime:histogram:count 0
scalar bottleneck.sender.ppp[0].queue flowQueueingTime:histogram:sumweights 0
scalar bottleneck.sender.ppp[0].queue flowQueueingTime:histogram:mean -nan
scalar bottleneck.sender.ppp[0].queue flowQueueingTime:histogram:stddev nan
scalar bottleneck.sender.ppp[0].queue flowQueueingTime:histogram:min nan
scalar bottleneck.sender.ppp[0].queue flowQueueingTime:histogram:max nan
scalar bottleneck.sender.ppp[0].queue flowQueueingTime:histogram:numbins 1
scalar bottleneck.sender.ppp[0].queue flowQueueingTime:histogram:rangemin 0
scalar bottleneck.sender.ppp[0].queue flowQueueingTime:histogram:rangemax 1
scalar bottleneck.sender.ppp[0].queue flowQueueingTime:histogram:underflows 0
scalar bottleneck.sender.ppp[0].queue flowQueueingTime:histogram:overflows 0
scalar bottleneck.sender.ppp[0].queue incomingPacketLengths:histogram:count 10832
scalar bottleneck.sender.ppp[0].queue incomingPacketLengths:histogram:sumweights 10832
scalar bottleneck.sender.ppp[0].queue incomingPacketLengths:histogram:mean 9997.4261447562785
scalar bottleneck.sender.ppp[0].queue incomingPacketLengths:histogram:stddev 1211.1620316807798
scalar bottleneck.sender.ppp[0].queue incomingPacketLengths:histogram:min 344
scalar bottleneck.sender.ppp[0].queue incomingPacketLengths:histogram:max 10240
scalar bottleneck.sender.ppp[0].queue incomingPacketLengths:histogram:numbins 64
scalar bottleneck.sender.ppp[0].queue incomingPacketLengths:histogram:rangemin 0
scalar bottleneck.sender.ppp[0].queue incomingPacketLengths:histogram:rangemax 12800
scalar bottleneck.sender.ppp[0].queue incomingPacketLengths:histogram:underflows 0
scalar bottleneck.sender.ppp[0].queue incomingPacketLengths:histogram:overflows 0
scalar bottleneck.router1.ppp[0].queue queueingTime:histogram:count 5605
scalar bottleneck.router1.ppp[0].queue queueingTime:histogram:sumweights 5605
scalar bottleneck.router1.ppp[0].queue queueingTime:histogram:mean 0
scalar bottleneck.router1.ppp[0].queue queueingTime:histogram:stddev 0
scalar bottleneck.router1.ppp[0].queue queueingTime:histogram:min 0
scalar bottleneck.router1.ppp[0].queue queueingTime:histogram:max 0
scalar bottleneck.router1.ppp[0].queue queueingTime:histogram:numbins 50
scalar bottleneck.router1.ppp[0].queue queueingTime:histogram:rangemin -0.5
scalar bottleneck.router1.ppp[0].queue queueingTime:histogram:rangemax 0.5
scalar bottleneck.router1.ppp[0].queue queueingTime:histogram:underflows 0
scalar bottleneck.router1.ppp[0].queue queueingTime:histogram:overflows 0
scalar bottleneck.router1.ppp[0].queue outgoingPacketLengths:histogram:count 5605
scalar bottleneck.router1.ppp[0].queue outgoingPacketLengths:histogram:sumweights 5605
scalar bottleneck.router1.ppp[0].queue outgoingPacketLengths:histogram:mean 379.38840321141839
scalar bottleneck.router1.ppp[0].queue outgoingPacketLengths:histogram:stddev 12.49673366466766
scalar bottleneck.router1.ppp[0].queue outgoingPacketLengths:histogram:min 336
scalar bottleneck.router1.ppp[0].queue outgoingPacketLengths:histogram:max 496
scalar bottleneck.router1.ppp[0].queue outgoingPacketLengths:histogram:numbins 49
scalar bottleneck.router1.ppp[0].queue outgoingPacketLengths:histogram:rangemin 295
scalar bottleneck.router1.ppp[0].queue outgoingPacketLengths:histogram:rangemax 540
scalar bottleneck.router1.ppp[0].queue outgoingPacketLengths:histogram:underflows 0
scalar bottleneck.router1.ppp[0].queue outgoingPacketLengths:histogram:overflows 0
scalar bottleneck.router1.ppp[0].queue flowQueueingTime:histogram:count 0
scalar bottleneck.router1.ppp[0].queue flowQueueingTime:histogram:sumweights 0
scalar bottleneck.router1.ppp[0].queue flowQueueingTime:histogram:mean -nan
scalar bottleneck.router1.ppp[0].queue flowQueueingTime:histogram:stddev nan
scalar bottleneck.router1.ppp[0].queue flowQueueingTime:histogram:min nan
scalar bottleneck.router1.ppp[0].queue flowQueueingTime:histogram:max nan
scalar bottleneck.router1.ppp[0].queue flowQueueingTime:histogram:numbins 1
scalar bottleneck.router1.ppp[0].queue flowQueueingTime:histogram:rangemin 0
scalar bottleneck.router1.ppp[0].queue flowQueueingTime:histogram:rangemax 1
scalar bottleneck.router1.ppp[0].queue flowQueueingTime:histogram:underflows 0
scalar bottleneck.router1.ppp[0].queue flowQueueingTime:histogram:overflows 0
scalar bottleneck.router1.ppp[0].queue incomingPacketLengths:histogram:count 5605
scalar bottleneck.router1.ppp[0].queue incomingPacketLengths:histogram:sumweights 5605
scalar bottleneck.router1.ppp[0].queue incomingPacketLengths:histogram:mean 379.38840321141839
scalar bottleneck.router1.ppp[0].queue incomingPacketLengths:histogram:stddev 12.49673366466766
scalar bottleneck.router1.ppp[0].queue incomingPacketLengths:histogram:min 336
scalar bottleneck.router1.ppp[0].queue incomingPacketLengths:histogram:max 496
scalar bottleneck.router1.ppp[0].queue incomingPacketLengths:histogram:numbins 49
scalar bottleneck.router1.ppp[0].queue incomingPacketLengths:histogram:rangemin 295
scalar bottleneck.router1.ppp[0].queue incomingPacketLengths:histogram:rangemax 540
scalar bottleneck.router1.ppp[0].queue incomingPacketLengths:histogram:underflows 0
scalar bottleneck.router1.ppp[0].queue incomingPacketLengths:histogram:overflows 0
scalar bottleneck.router1.ppp[1].queue queueingTime:histogram:count 10832
scalar bottleneck.router1.ppp[1].queue queueingTime:histogram:sumweights 10832
scalar bottleneck.router1.ppp[1].queue queueingTime:histogram:mean 1.2072297274741458e-06
scalar bottleneck.router1.ppp[1].queue queueingTime:histogram:stddev 7.3396689945919898e-07
scalar bottleneck.router1.ppp[1].queue queueingTime:histogram:min 0
scalar bottleneck.router1.ppp[1].queue queueingTime:histogram:max 4.8206559999999999e-06
scalar bottleneck.router1.ppp[1].queue queueingTime:histogram:numbins 61
scalar bottleneck.router1.ppp[1].queue queueingTime:histogram:rangemin 0
scalar bottleneck.router1.ppp[1].queue queueingTime:histogram:rangemax 6.1000000000000017e-06
scalar bottleneck.router1.ppp[1].queue queueingTime:histogram:underflows 0
scalar bottleneck.router1.ppp[1].queue queueingTime:histogram:overflows 0
scalar bottleneck.router1.ppp[1].queue outgoingPacketLengths:histogram:count 10832
scalar bottleneck.router1.ppp[1].queue outgoingPacketLengths:histogram:sumweights 10832
scalar bottleneck.router1.ppp[1].queue outgoingPacketLengths:histogram:mean 9997.4261447562785
scalar bottleneck.router1.ppp[1].queue outgoingPacketLengths:histogram:stddev 1211.1620316807798
scalar bottleneck.router1.ppp[1].queue outgoingPacketLengths:histogram:min 344
scalar bottleneck.router1.ppp[1].queue outgoingPacketLengths:histogram:max 10240
scalar bottleneck.router1.ppp[1].queue outgoingPacketLengths:histogram:numbins 64
scalar bottleneck.router1.ppp[1].queue outgoingPacketLengths:histogram:rangemin 0
scalar bottleneck.router1.ppp[1].queue outgoingPacketLengths:histogram:rangemax 12800
scalar bottleneck.router1.ppp[1].queue outgoingPacketLengths:histogram:underflows 0
scalar bottleneck.router1.ppp[1].queue outgoingPacketLengths:histogram:overflows 0
scalar bottleneck.router1.ppp[1].queue flowQueueingTime:histogram:count 0
scalar bottleneck.router1.ppp[1].queue flowQueueingTime:histogram:sumweights 0
scalar bottleneck.router1.ppp[1].queue flowQueueingTime:histogram:mean -nan
scalar bottleneck.router1.ppp[1].queue flowQueueingTime:histogram:stddev nan
scalar bottleneck.router1.ppp[1].queue flowQueueingTime:histogram:min nan
scalar bottleneck.router1.ppp[1].queue flowQueueingTime:histogram:max nan
scalar bottleneck.router1.ppp[1].queue flowQueueingTime:histogram:numbins 1
scalar bottleneck.router1.ppp[1].queue flowQueueingTime:histogram:rangemin 0
scalar bottleneck.router1.ppp[1].queue flowQueueingTime:histogram:rangemax 1
scalar bottleneck.router1.ppp[1].queue flowQueueingTime:histogram:underflows 0
scalar bottleneck.router1.ppp[1].queue flowQueueingTime:histogram:overflows 0
scalar bottleneck.router1.ppp[1].queue incomingPacketLengths:histogram:count 10832
scalar bottleneck.router1.ppp[1].queue incomingPacketLengths:histogram:sumweights 10832
scalar bottleneck.router1.ppp[1].queue incomingPacketLengths:histogram:mean 9997.4261447562785
scalar bottleneck.router1.ppp[1].queue incomingPacketLengths:histogram:stddev 1211.1620316807798
scalar bottleneck.router1.ppp[1].queue incomingPacketLengths:histogram:min 344
scalar bottleneck.router1.ppp[1].queue incomingPacketLengths:histogram:max 10240
scalar bottleneck.router1.ppp[1].queue incomingPacketLengths:histogram:numbins 64
scalar bottleneck.router1.ppp[1].queue incomingPacketLengths:histogram:rangemin 0
scalar bottleneck.router1.ppp[1].queue incomingPacketLengths:histogram:rangemax 12800
scalar bottleneck.router1.ppp[1].queue incomingPacketLengths:histogram:underflows 0
scalar bottleneck.router1.ppp[1].queue incomingPacketLengths:histogram:overflows 0
scalar bottleneck.router2.ppp[0].queue queueingTime:histogram:count 10832
scalar bottleneck.router2.ppp[0].queue queueingTime:histogram:sumweights 10832
scalar bottleneck.router2.ppp[0].queue queueingTime:histogram:mean 0
scalar bottleneck.router2.ppp[0].queue queueingTime:histogram:stddev 0
scalar bottleneck.router2.ppp[0].queue queueingTime:histogram:min 0
scalar bottleneck.router2.ppp[0].queue queueingTime:histogram:max 0
scalar bottleneck.router2.ppp[0].queue queueingTime:histogram:numbins 50
scalar bottleneck.router2.ppp[0].queue queueingTime:histogram:rangemin -0.5
scalar bottleneck.router2.ppp[0].queue queueingTime:histogram:rangemax 0.5
scalar bottleneck.router2.ppp[0].queue queueingTime:histogram:underflows 0
scalar bottleneck.router2.ppp[0].queue queueingTime:histogram:overflows 0
scalar bottleneck.router2.ppp[0].queue outgoingPacketLengths:histogram:count 10832
scalar bottleneck.router2.ppp[0].queue outgoingPacketLengths:histogram:sumweights 10832
scalar bottleneck.router2.ppp[0].queue outgoingPacketLengths:histogram:mean 9997.4261447562785
scalar bottleneck.router2.ppp[0].queue outgoingPacketLengths:histogram:stddev 1211.1620316807798
scalar bottleneck.router2.ppp[0].queue outgoingPacketLengths:histogram:min 344
scalar bottleneck.router2.ppp[0].queue outgoingPacketLengths:histogram:max 10240
scalar bottleneck.router2.ppp[0].queue outgoingPacketLengths:histogram:numbins 64
scalar bottleneck.router2.ppp[0].queue outgoingPacketLengths:histogram:rangemin 0
scalar bottleneck.router2.ppp[0].queue outgoingPacketLengths:histogram:rangemax 12800
scalar bottleneck.router2.ppp[0].queue outgoingPacketLengths:histogram:underflows 0
scalar bottleneck.router2.ppp[0].queue outgoingPacketLengths:histogram:overflows 0
scalar bottleneck.router2.ppp[0].queue flowQueueingTime:histogram:count 0
scalar bottleneck.router2.ppp[0].queue flowQueueingTime:histogram:sumweights 0
scalar bottleneck.router2.ppp[0].queue flowQueueingTime:histogram:mean -nan
scalar bottleneck.router2.ppp[0].queue flowQueueingTime:histogram:stddev nan
scalar bottleneck.router2.ppp[0].queue flowQueueingTime:histogram:min nan
scalar bottleneck.router2.ppp[0].queue flowQueueingTime:histogram:max nan
scalar bottleneck.router2.ppp[0].queue flowQueueingTime:histogram:numbins 1
scalar bottleneck.router2.ppp[0].queue flowQueueingTime:histogram:rangemin 0
scalar bottleneck.router2.ppp[0].queue flowQueueingTime:histogram:rangemax 1
scalar bottleneck.router2.ppp[0].queue flowQueueingTime:histogram:underflows 0
scalar bottleneck.router2.ppp[0].queue flowQueueingTime:histogram:overflows 0
scalar bottleneck.router2.ppp[0].queue incomingPacketLengths:histogram:count 10832
scalar bottleneck.router2.ppp[0].queue incomingPacketLengths:histogram:sumweights 10832
scalar bottleneck.router2.ppp[0].queue incomingPacketLengths:histogram:mean 9997.4261447562785
scalar bottleneck.router2.ppp[0].queue incomingPacketLengths:histogram:stddev 1211.1620316807798
scalar bottleneck.router2.ppp[0].queue incomingPacketLengths:histogram:min 344
scalar bottleneck.router2.ppp[0].queue incomingPacketLengths:histogram:max 10240
scalar bottleneck.router2.ppp[0].queue incomingPacketLengths:histogram:numbins 64
scalar bottleneck.router2.ppp[0].queue incomingPacketLengths:histogram:rangemin 0
scalar bottleneck.router2.ppp[0].queue incomingPacketLengths:histogram:rangemax 12800
scalar bottleneck.router2.ppp[0].queue incomingPacketLengths:histogram:underflows 0
scalar bottleneck.router2.ppp[0].queue incomingPacketLengths:histogram:overflows 0
scalar bottleneck.router2.ppp[1].queue queueingTime:histogram:count 5605
scalar bottleneck.router2.ppp[1].queue queueingTime:histogram:sumweights 5605
scalar bottleneck.router2.ppp[1].queue queueingTime:histogram:mean 2.0096342551293488e-12
scalar bottleneck.router2.ppp[1].queue queueingTime:histogram:stddev 8.6857044799019104e-11
scalar bottleneck.router2.ppp[1].queue queueingTime:histogram:min 0
scalar bottleneck.router2.ppp[1].queue queueingTime:histogram:max 3.8080000000000001e-09
scalar bottleneck.router2.ppp[1].queue queueingTime:histogram:numbins 48
scalar bottleneck.router2.ppp[1].queue queueingTime:histogram:rangemin 0
scalar bottleneck.router2.ppp[1].queue queueingTime:histogram:rangemax 4.8000000000000016e-09
scalar bottleneck.router2.ppp[1].queue queueingTime:histogram:underflows 0
scalar bottleneck.router2.ppp[1].queue queueingTime:histogram:overflows 0
scalar bottleneck.router2.ppp[1].queue outgoingPacketLengths:histogram:count 5605
scalar bottleneck.router2.ppp[1].queue outgoingPacketLengths:histogram:sumweights 5605
scalar bottleneck.router2.ppp[1].queue outgoingPacketLengths:histogram:mean 379.38840321141839
scalar bottleneck.router2.ppp[1].queue outgoingPacketLengths:histogram:stddev 12.49673366466766
scalar bottleneck.router2.ppp[1].queue outgoingPacketLengths:histogram:min 336
scalar bottleneck.router2.ppp[1].queue outgoingPacketLengths:histogram:max 496
scalar bottleneck.router2.ppp[1].queue outgoingPacketLengths:histogram:numbins 49
scalar bottleneck.router2.ppp[1].queue outgoingPacketLengths:histogram:rangemin 295
scalar bottleneck.router2.ppp[1].queue outgoingPacketLengths:histogram:rangemax 540
scalar bottleneck.router2.ppp[1].queue outgoingPacketLengths:histogram:underflows 0
scalar bottleneck.router2.ppp[1].queue outgoingPacketLengths:histogram:overflows 0
scalar bottleneck.router2.ppp[1].queue flowQueueingTime:histogram:count 0
scalar bottleneck.router2.ppp[1].queue flowQueueingTime:histogram:sumweights 0
scalar bottleneck.router2.ppp[1].queue flowQueueingTime:histogram:mean -nan
scalar bottleneck.router2.ppp[1].queue flowQueueingTime:histogram:stddev nan
scalar bottleneck.router2.ppp[1].queue flowQueueingTime:histogram:min nan
scalar bottleneck.router2.ppp[1].queue flowQueueingTime:histogram:max nan
scalar bottleneck.router2.ppp[1].queue flowQueueingTime:histogram:numbins 1
scalar bottleneck.router2.ppp[1].queue flowQueueingTime:histogram:rangemin 0
scalar bottleneck.router2.ppp[1].queue flowQueueingTime:histogram:rangemax 1
scalar bottleneck.router2.ppp[1].queue flowQueueingTime:histogram:underflows 0
scalar bottleneck.router2.ppp[1].queue flowQueueingTime:histogram:overflows 0
scalar bottleneck.router2.ppp[1].queue incomingPacketLengths:histogram:count 5605
scalar bottleneck.router2.ppp[1].queue incomingPacketLengths:histogram:sumweights 5605
scalar bottleneck.router2.ppp[1].queue incomingPacketLengths:histogram:mean 379.38840321141839
scalar bottleneck.router2.ppp[1].queue incomingPacketLengths:histogram:stddev 12.49673366466766
scalar bottleneck.router2.ppp[1].queue incomingPacketLengths:histogram:min 336
scalar bottleneck.router2.ppp[1].queue incomingPacketLengths:histogram:max 496
scalar bottleneck.router2.ppp[1].queue incomingPacketLengths:histogram:numbins 49
scalar bottleneck.router2.ppp[1].queue incomingPacketLengths:histogram:rangemin 295
scalar bottleneck.router2.ppp[1].queue incomingPacketLengths:histogram:rangemax 540
scalar bottleneck.router2.ppp[1].queue incomingPacketLengths:histogram:underflows 0
scalar bottleneck.router2.ppp[1].queue incomingPacketLengths:histogram:overflows 0
scalar bottleneck.receiver.ppp[0].queue queueingTime:histogram:count 5605
scalar bottleneck.receiver.ppp[0].queue queueingTime:histogram:sumweights 5605
scalar bottleneck.receiver.ppp[0].queue queueingTime:histogram:mean 2.2551293487957181e-13
scalar bottleneck.receiver.ppp[0].queue queueingTime:histogram:stddev 9.7486153746078226e-12
scalar bottleneck.receiver.ppp[0].queue queueingTime:histogram:min 0
scalar bottleneck.receiver.ppp[0].queue queueingTime:histogram:max 4.3200000000000001e-10
scalar bottleneck.receiver.ppp[0].queue queueingTime:histogram:numbins 54
scalar bottleneck.receiver.ppp[0].queue queueingTime:histogram:rangemin 0
scalar bottleneck.receiver.ppp[0].queue queueingTime:histogram:rangemax 5.400000000000001e-10
scalar bottleneck.receiver.ppp[0].queue queueingTime:histogram:underflows 0
scalar bottleneck.receiver.ppp[0].queue queueingTime:histogram:overflows 0
scalar bottleneck.receiver.ppp[0].queue outgoingPacketLengths:histogram:count 5605
scalar bottleneck.receiver.ppp[0].queue outgoingPacketLengths:histogram:sumweights 5605
scalar bottleneck.receiver.ppp[0].queue outgoingPacketLengths:histogram:mean 379.38840321141839
scalar bottleneck.receiver.ppp[0].queue outgoingPacketLengths:histogram:stddev 12.49673366466766
scalar bottleneck.receiver.ppp[0].queue outgoingPacketLengths:histogram:min 336
scalar bottleneck.receiver.ppp[0].queue outgoingPacketLengths:histogram:max 496
scalar bottleneck.receiver.ppp[0].queue outgoingPacketLengths:histogram:numbins 49
scalar bottleneck.receiver.ppp[0].queue outgoingPacketLengths:histogram:rangemin 295
scalar bottleneck.receiver.ppp[0].queue outgoingPacketLengths:histogram:rangemax 540
scalar bottleneck.receiver.ppp[0].queue outgoingPacketLengths:histogram:underflows 0
scalar bottleneck.receiver.ppp[0].queue outgoingPacketLengths:histogram:overflows 0
scalar bottleneck.receiver.ppp[0].queue flowQueueingTime:histogram:count 0
scalar bottleneck.receiver.ppp[0].queue flowQueueingTime:histogram:sumweights 0
scalar bottleneck.receiver.ppp[0].queue flowQueueingTime:histogram:mean -nan
scalar bottleneck.receiver.ppp[0].queue flowQueueingTime:histogram:stddev nan
scalar bottleneck.receiver.ppp[0].queue flowQueueingTime:histogram:min nan
scalar bottleneck.receiver.ppp[0].queue flowQueueingTime:histogram:max nan
scalar bottleneck.receiver.ppp[0].queue flowQueueingTime:histogram:numbins 1
scalar bottleneck.receiver.ppp[0].queue flowQueueingTime:histogram:rangemin 0
scalar bottleneck.receiver.ppp[0].queue flowQueueingTime:histogram:rangemax 1
scalar bottleneck.receiver.ppp[0].queue flowQueueingTime:histogram:underflows 0
scalar bottleneck.receiver.ppp[0].queue flowQueueingTime:histogram:overflows 0
scalar bottleneck.receiver.ppp[0].queue incomingPacketLengths:histogram:count 5605
scalar bottleneck.receiver.ppp[0].queue incomingPacketLengths:histogram:sumweights 5605
scalar bottleneck.receiver.ppp[0].queue incomingPacketLengths:histogram:mean 379.38840321141839
scalar bottleneck.receiver.ppp[0].queue incomingPacketLengths:histogram:stddev 12.49673366466766
scalar bottleneck.receiver.ppp[0].queue incomingPacketLengths:histogram:min 336
scalar bottleneck.receiver.ppp[0].queue incomingPacketLengths:histogram:max 496
scalar bottleneck.receiver.ppp[0].queue incomingPacketLengths:histogram:numbins 49
scalar bottleneck.receiver.ppp[0].queue incomingPacketLengths:histogram:rangemin 295
scalar bottleneck.receiver.ppp[0].queue incomingPacketLengths:histogram:rangemax 540
scalar bottleneck.receiver.ppp[0].queue incomingPacketLengths:histogram:underflows 0
scalar bottleneck.receiver.ppp[0].queue incomingPacketLengths:histogram:overflows 0
statistic bottleneck.sender.ppp[0].queue queueingTime:histogram
field count 10832
field mean 1.3409513441654157e-07
field stddev 8.1512153979101538e-08
field min 0
field max 5.3539199999999998e-07
field sum 0.0014525184959999784
field sqrsum 2.6673933159244341e-10
bin	-inf	0
bin	0	432
bin	1.0000000000000002e-08	399
bin	2.0000000000000004e-08	399
bin	3.0000000000000004e-08	399
bin	4.0000000000000007e-08	399
bin	5.0000000000000011e-08	399
bin	6.0000000000000008e-08	399
bin	7.0000000000000018e-08	399
bin	8.0000000000000015e-08	399
bin	9.0000000000000012e-08	399
bin	1.0000000000000002e-07	399
bin	1.1000000000000002e-07	399
bin	1.2000000000000002e-07	399
bin	1.3000000000000003e-07	399
bin	1.4000000000000004e-07	399
bin	1.5000000000000002e-07	399
bin	1.6000000000000003e-07	399
bin	1.7000000000000004e-07	399
bin	1.8000000000000002e-07	399
bin	1.9000000000000003e-07	399
bin	2.0000000000000004e-07	399
bin	2.1000000000000003e-07	399
bin	2.2000000000000004e-07	399
bin	2.3000000000000005e-07	399
bin	2.4000000000000003e-07	399
bin	2.5000000000000004e-07	399
bin	2.6000000000000005e-07	399
bin	2.7000000000000006e-07	1
bin	2.8000000000000007e-07	1
bin	2.9000000000000003e-07	1
bin	3.0000000000000004e-07	1
bin	3.1000000000000005e-07	1
bin	3.2000000000000006e-07	1
bin	3.3000000000000007e-07	1
bin	3.4000000000000008e-07	0
bin	3.5000000000000009e-07	1
bin	3.6000000000000005e-07	1
bin	3.7000000000000006e-07	1
bin	3.8000000000000007e-07	1
bin	3.9000000000000008e-07	1
bin	4.0000000000000009e-07	1
bin	4.100000000000001e-07	1
bin	4.2000000000000006e-07	1
bin	4.3000000000000007e-07	1
bin	4.4000000000000008e-07	1
bin	4.5000000000000009e-07	1
bin	4.600000000000001e-07	1
bin	4.7000000000000011e-07	1
bin	4.8000000000000006e-07	1
bin	4.9000000000000007e-07	1
bin	5.0000000000000008e-07	1
bin	5.1000000000000009e-07	1
bin	5.200000000000001e-07	1
bin	5.3000000000000011e-07	1
bin	5.4000000000000012e-07	0
bin	5.5000000000000013e-07	0
bin	5.6000000000000014e-07	0
bin	5.7000000000000015e-07	0
bin	5.8000000000000006e-07	0
bin	5.9000000000000007e-07	0
bin	6.0000000000000008e-07	0
bin	6.1000000000000009e-07	0
bin	6.200000000000001e-07	0
bin	6.3000000000000011e-07	0
bin	6.4000000000000012e-07	0
bin	6.5000000000000013e-07	0
bin	6.6000000000000014e-07	0
bin	6.7000000000000015e-07	0
statistic bottleneck.sender.ppp[0].queue outgoingPacketLengths:histogram
field count 10832
field mean 9997.4261447562785
field stddev 1211.1620316807798
field min 344
field max 10240
field sum 108292120
field sqrsum 1098530611520
bin	-inf	0
bin	0	0
bin	200	31
bin	400	1
bin	600	0
bin	800	0
bin	1000	0
bin	1200	0
bin	1400	0
bin	1600	0
bin	1800	0
bin	2000	0
bin	2200	0
bin	2400	0
bin	2600	0
bin	2800	0
bin	3000	0
bin	3200	0
bin	3400	0
bin	3600	0
bin	3800	0
bin	4000	0
bin	4200	1
bin	4400	397
bin	4600	0
bin	4800	0
bin	5000	0
bin	5200	0
bin	5400	0
bin	5600	0
bin	5800	0
bin	6000	0
bin	6200	0
bin	6400	0
bin	6600	0
bin	6800	0
bin	7000	0
bin	7200	0
bin	7400	0
bin	7600	0
bin	7800	0
bin	8000	1
bin	8200	0
bin	8400	0
bin	8600	0
bin	8800	0
bin	9000	0
bin	9200	0
bin	9400	0
bin	9600	0
bin	9800	1
bin	10000	0
bin	10200	10400
bin	10400	0
bin	10600	0
bin	10800	0
bin	11000	0
bin	11200	0
bin	11400	0
bin	11600	0
bin	11800	0
bin	12000	0
bin	12200	0
bin	12400	0
bin	12600	0
bin	12800	0
statistic bottleneck.sender.ppp[0].queue flowQueueingTime:histogram
field count 0
field mean -nan
field stddev nan
field min nan
field max nan
field sum 0
field sqrsum 0
bin	-inf	0
bin	0	0
bin	1	0
statistic bottleneck.sender.ppp[0].queue incomingPacketLengths:histogram
field count 10832
field mean 9997.4261447562785
field stddev 1211.1620316807798
field min 344
field max 10240
field sum 108292120
field sqrsum 1098530611520
bin	-inf	0
bin	0	0
bin	200	31
bin	400	1
bin	600	0
bin	800	0
bin	1000	0
bin	1200	0
bin	1400	0
bin	1600	0
bin	1800	0
bin	2000	0
bin	2200	0
bin	2400	0
bin	2600	0
bin	2800	0
bin	3000	0
bin	3200	0
bin	3400	0
bin	3600	0
bin	3800	0
bin	4000	0
bin	4200	1
bin	4400	397
bin	4600	0
bin	4800	0
bin	5000	0
bin	5200	0
bin	5400	0
bin	5600	0
bin	5800	0
bin	6000	0
bin	6200	0
bin	6400	0
bin	6600	0
bin	6800	0
bin	7000	0
bin	7200	0
bin	7400	0
bin	7600	0
bin	7800	0
bin	8000	1
bin	8200	0
bin	8400	0
bin	8600	0
bin	8800	0
bin	9000	0
bin	9200	0
bin	9400	0
bin	9600	0
bin	9800	1
bin	10000	0
bin	10200	10400
bin	10400	0
bin	10600	0
bin	10800	0
bin	11000	0
bin	11200	0
bin	11400	0
bin	11600	0
bin	11800	0
bin	12000	0
bin	12200	0
bin	12400	0
bin	12600	0
bin	12800	0
statistic bottleneck.router1.ppp[0].queue queueingTime:histogram
field count 5605
field mean 0
field stddev 0
field min 0
field max 0
field sum 0
field sqrsum 0
bin	-inf	0
bin	-0.5	0
bin	-0.47999999999999998	0
bin	-0.46000000000000002	0
bin	-0.44	0
bin	-0.41999999999999998	0
bin	-0.40000000000000002	0
bin	-0.38	0
bin	-0.35999999999999999	0
bin	-0.33999999999999997	0
bin	-0.32000000000000001	0
bin	-0.29999999999999999	0
bin	-0.28000000000000003	0
bin	-0.26000000000000001	0
bin	-0.23999999999999999	0
bin	-0.21999999999999997	0
bin	-0.20000000000000001	0
bin	-0.17999999999999999	0
bin	-0.15999999999999998	0
bin	-0.14000000000000001	0
bin	-0.12	0
bin	-0.099999999999999978	0
bin	-0.080000000000000016	0
bin	-0.059999999999999998	0
bin	-0.03999999999999998	0
bin	-0.020000000000000018	0
bin	0	5605
bin	0.020000000000000018	0
bin	0.040000000000000036	0
bin	0.060000000000000053	0
bin	0.07999999999999996	0
bin	0.099999999999999978	0
bin	0.12	0
bin	0.14000000000000001	0
bin	0.16000000000000003	0
bin	0.18000000000000005	0
bin	0.20000000000000007	0
bin	0.21999999999999997	0
bin	0.23999999999999999	0
bin	0.26000000000000001	0
bin	0.28000000000000003	0
bin	0.30000000000000004	0
bin	0.32000000000000006	0
bin	0.33999999999999997	0
bin	0.35999999999999999	0
bin	0.38	0
bin	0.40000000000000002	0
bin	0.42000000000000004	0
bin	0.44000000000000006	0
bin	0.45999999999999996	0
bin	0.47999999999999998	0
bin	0.5	0
statistic bottleneck.router1.ppp[0].queue outgoingPacketLengths:histogram
field count 5605
field mean 379.38840321141839
field stddev 12.49673366466766
field min 336
field max 496
field sum 2126472
field sqrsum 807633984
bin	-inf	0
bin	295	0
bin	300	0
bin	305	0
bin	310	0
bin	315	0
bin	320	0
bin	325	0
bin	330	0
bin	335	1
bin	340	1
bin	345	0
bin	350	1
bin	355	0
bin	360	0
bin	365	31
bin	370	0
bin	375	5163
bin	380	8
bin	385	0
bin	390	0
bin	395	0
bin	400	0
bin	405	0
bin	410	0
bin	415	1
bin	420	397
bin	425	0
bin	430	1
bin	435	0
bin	440	0
bin	445	0
bin	450	0
bin	455	0
bin	460	0
bin	465	0
bin	470	0
bin	475	0
bin	480	0
bin	485	0
bin	490	0
bin	495	1
bin	500	0
bin	505	0
bin	510	0
bin	515	0
bin	520	0
bin	525	0
bin	530	0
bin	535	0
bin	540	0
statistic bottleneck.router1.ppp[0].queue flowQueueingTime:histogram
field count 0
field mean -nan
field stddev nan
field min nan
field max nan
field sum 0
field sqrsum 0
bin	-inf	0
bin	0	0
bin	1	0
statistic bottleneck.router1.ppp[0].queue incomingPacketLengths:histogram
field count 5605
field mean 379.38840321141839
field stddev 12.49673366466766
field min 336
field max 496
field sum 2126472
field sqrsum 807633984
bin	-inf	0
bin	295	0
bin	300	0
bin	305	0
bin	310	0
bin	315	0
bin	320	0
bin	325	0
bin	330	0
bin	335	1
bin	340	1
bin	345	0
bin	350	1
bin	355	0
bin	360	0
bin	365	31
bin	370	0
bin	375	5163
bin	380	8
bin	385	0
bin	390	0
bin	395	0
bin	400	0
bin	405	0
bin	410	0
bin	415	1
bin	420	397
bin	425	0
bin	430	1
bin	435	0
bin	440	0
bin	445	0
bin	450	0
bin	455	0
bin	460	0
bin	465	0
bin	470	0
bin	475	0
bin	480	0
bin	485	0
bin	490	0
bin	495	1
bin	500	0
bin	505	0
bin	510	0
bin	515	0
bin	520	0
bin	525	0
bin	530	0
bin	535	0
bin	540	0
statistic bottleneck.router1.ppp[1].queue queueingTime:histogram
field count 10832
field mean 1.2072297274741458e-06
field stddev 7.3396689945919898e-07
field min 0
field max 4.8206559999999999e-06
field sum 0.013076712407999947
field sqrsum 2.162133590888101e-08
bin	-inf	0
bin	0	830
bin	1.0000000000000002e-07	399
bin	2.0000000000000004e-07	399
bin	3.0000000000000009e-07	399
bin	4.0000000000000009e-07	399
bin	5.0000000000000008e-07	399
bin	6.0000000000000018e-07	399
bin	7.0000000000000018e-07	399
bin	8.0000000000000018e-07	400
bin	9.0000000000000017e-07	399
bin	1.0000000000000002e-06	399
bin	1.1000000000000003e-06	399
bin	1.2000000000000004e-06	797
bin	1.3000000000000003e-06	399
bin	1.4000000000000004e-06	399
bin	1.5000000000000002e-06	399
bin	1.6000000000000004e-06	399
bin	1.7000000000000005e-06	399
bin	1.8000000000000003e-06	399
bin	1.9000000000000004e-06	399
bin	2.0000000000000003e-06	399
bin	2.1000000000000006e-06	400
bin	2.2000000000000005e-06	399
bin	2.3000000000000004e-06	399
bin	2.4000000000000007e-06	399
bin	2.5000000000000006e-06	2
bin	2.6000000000000005e-06	1
bin	2.7000000000000004e-06	1
bin	2.8000000000000007e-06	1
bin	2.9000000000000006e-06	1
bin	3.0000000000000005e-06	1
bin	3.1000000000000008e-06	1
bin	3.2000000000000007e-06	1
bin	3.3000000000000006e-06	1
bin	3.4000000000000009e-06	1
bin	3.5000000000000008e-06	1
bin	3.6000000000000007e-06	1
bin	3.700000000000001e-06	2
bin	3.8000000000000009e-06	1
bin	3.9000000000000008e-06	1
bin	4.0000000000000007e-06	1
bin	4.1000000000000006e-06	1
bin	4.2000000000000013e-06	1
bin	4.3000000000000012e-06	1
bin	4.4000000000000011e-06	1
bin	4.500000000000001e-06	1
bin	4.6000000000000009e-06	1
bin	4.7000000000000007e-06	1
bin	4.8000000000000015e-06	1
bin	4.9000000000000014e-06	0
bin	5.0000000000000013e-06	0
bin	5.1000000000000011e-06	0
bin	5.200000000000001e-06	0
bin	5.3000000000000009e-06	0
bin	5.4000000000000008e-06	0
bin	5.5000000000000016e-06	0
bin	5.6000000000000014e-06	0
bin	5.7000000000000013e-06	0
bin	5.8000000000000012e-06	0
bin	5.9000000000000011e-06	0
bin	6.000000000000001e-06	0
bin	6.1000000000000017e-06	0
statistic bottleneck.router1.ppp[1].queue outgoingPacketLengths:histogram
field count 10832
field mean 9997.4261447562785
field stddev 1211.1620316807798
field min 344
field max 10240
field sum 108292120
field sqrsum 1098530611520
bin	-inf	0
bin	0	0
bin	200	31
bin	400	1
bin	600	0
bin	800	0
bin	1000	0
bin	1200	0
bin	1400	0
bin	1600	0
bin	1800	0
bin	2000	0
bin	2200	0
bin	2400	0
bin	2600	0
bin	2800	0
bin	3000	0
bin	3200	0
bin	3400	0
bin	3600	0
bin	3800	0
bin	4000	0
bin	4200	1
bin	4400	397
bin	4600	0
bin	4800	0
bin	5000	0
bin	5200	0
bin	5400	0
bin	5600	0
bin	5800	0
bin	6000	0
bin	6200	0
bin	6400	0
bin	6600	0
bin	6800	0
bin	7000	0
bin	7200	0
bin	7400	0
bin	7600	0
bin	7800	0
bin	8000	1
bin	8200	0
bin	8400	0
bin	8600	0
bin	8800	0
bin	9000	0
bin	9200	0
bin	9400	0
bin	9600	0
bin	9800	1
bin	10000	0
bin	10200	10400
bin	10400	0
bin	10600	0
bin	10800	0
bin	11000	0
bin	11200	0
bin	11400	0
bin	11600	0
bin	11800	0
bin	12000	0
bin	12200	0
bin	12400	0
bin	12600	0
bin	12800	0
statistic bottleneck.router1.ppp[1].queue flowQueueingTime:histogram
field count 0
field mean -nan
field stddev nan
field min nan
field max nan
field sum 0
field sqrsum 0
bin	-inf	0
bin	0	0
bin	1	0
statistic bottleneck.router1.ppp[1].queue incomingPacketLengths:histogram
field count 10832
field mean 9997.4261447562785
field stddev 1211.1620316807798
field min 344
field max 10240
field sum 108292120
field sqrsum 1098530611520
bin	-inf	0
bin	0	0
bin	200	31
bin	400	1
bin	600	0
bin	800	0
bin	1000	0
bin	1200	0
bin	1400	0
bin	1600	0
bin	1800	0
bin	2000	0
bin	2200	0
bin	2400	0
bin	2600	0
bin	2800	0
bin	3000	0
bin	3200	0
bin	3400	0
bin	3600	0
bin	3800	0
bin	4000	0
bin	4200	1
bin	4400	397
bin	4600	0
bin	4800	0
bin	5000	0
bin	5200	0
bin	5400	0
bin	5600	0
bin	5800	0
bin	6000	0
bin	6200	0
bin	6400	0
bin	6600	0
bin	6800	0
bin	7000	0
bin	7200	0
bin	7400	0
bin	7600	0
bin	7800	0
bin	8000	1
bin	8200	0
bin	8400	0
bin	8600	0
bin	8800	0
bin	9000	0
bin	9200	0
bin	9400	0
bin	9600	0
bin	9800	1
bin	10000	0
bin	10200	10400
bin	10400	0
bin	10600	0
bin	10800	0
bin	11000	0
bin	11200	0
bin	11400	0
bin	11600	0
bin	11800	0
bin	12000	0
bin	12200	0
bin	12400	0
bin	12600	0
bin	12800	0
statistic bottleneck.router2.ppp[0].queue queueingTime:histogram
field count 10832
field mean 0
field stddev 0
field min 0
field max 0
field sum 0
field sqrsum 0
bin	-inf	0
bin	-0.5	0
bin	-0.47999999999999998	0
bin	-0.46000000000000002	0
bin	-0.44	0
bin	-0.41999999999999998	0
bin	-0.40000000000000002	0
bin	-0.38	0
bin	-0.35999999999999999	0
bin	-0.33999999999999997	0
bin	-0.32000000000000001	0
bin	-0.29999999999999999	0
bin	-0.28000000000000003	0
bin	-0.26000000000000001	0
bin	-0.23999999999999999	0
bin	-0.21999999999999997	0
bin	-0.20000000000000001	0
bin	-0.17999999999999999	0
bin	-0.15999999999999998	0
bin	-0.14000000000000001	0
bin	-0.12	0
bin	-0.099999999999999978	0
bin	-0.080000000000000016	0
bin	-0.059999999999999998	0
bin	-0.03999999999999998	0
bin	-0.020000000000000018	0
bin	0	10832
bin	0.020000000000000018	0
bin	0.040000000000000036	0
bin	0.060000000000000053	0
bin	0.07999999999999996	0
bin	0.099999999999999978	0
bin	0.12	0
bin	0.14000000000000001	0
bin	0.16000000000000003	0
bin	0.18000000000000005	0
bin	0.20000000000000007	0
bin	0.21999999999999997	0
bin	0.23999999999999999	0
bin	0.26000000000000001	0
bin	0.28000000000000003	0
bin	0.30000000000000004	0
bin	0.32000000000000006	0
bin	0.33999999999999997	0
bin	0.35999999999999999	0
bin	0.38	0
bin	0.40000000000000002	0
bin	0.42000000000000004	0
bin	0.44000000000000006	0
bin	0.45999999999999996	0
bin	0.47999999999999998	0
bin	0.5	0
statistic bottleneck.router2.ppp[0].queue outgoingPacketLengths:histogram
field count 10832
field mean 9997.4261447562785
field stddev 1211.1620316807798
field min 344
field max 10240
field sum 108292120
field sqrsum 1098530611520
bin	-inf	0
bin	0	0
bin	200	31
bin	400	1
bin	600	0
bin	800	0
bin	1000	0
bin	1200	0
bin	1400	0
bin	1600	0
bin	1800	0
bin	2000	0
bin	2200	0
bin	2400	0
bin	2600	0
bin	2800	0
bin	3000	0
bin	3200	0
bin	3400	0
bin	3600	0
bin	3800	0
bin	4000	0
bin	4200	1
bin	4400	397
bin	4600	0
bin	4800	0
bin	5000	0
bin	5200	0
bin	5400	0
bin	5600	0
bin	5800	0
bin	6000	0
bin	6200	0
bin	6400	0
bin	6600	0
bin	6800	0
bin	7000	0
bin	7200	0
bin	7400	0
bin	7600	0
bin	7800	0
bin	8000	1
bin	8200	0
bin	8400	0
bin	8600	0
bin	8800	0
bin	9000	0
bin	9200	0
bin	9400	0
bin	9600	0
bin	9800	1
bin	10000	0
bin	10200	10400
bin	10400	0
bin	10600	0
bin	10800	0
bin	11000	0
bin	11200	0
bin	11400	0
bin	11600	0
bin	11800	0
bin	12000	0
bin	12200	0
bin	12400	0
bin	12600	0
bin	12800	0
statistic bottleneck.router2.ppp[0].queue flowQueueingTime:histogram
field count 0
field mean -nan
field stddev nan
field min nan
field max nan
field sum 0
field sqrsum 0
bin	-inf	0
bin	0	0
bin	1	0
statistic bottleneck.router2.ppp[0].queue incomingPacketLengths:histogram
field count 10832
field mean 9997.4261447562785
field stddev 1211.1620316807798
field min 344
field max 10240
field sum 108292120
field sqrsum 1098530611520
bin	-inf	0
bin	0	0
bin	200	31
bin	400	1
bin	600	0
bin	800	0
bin	1000	0
bin	1200	0
bin	1400	0
bin	1600	0
bin	1800	0
bin	2000	0
bin	2200	0
bin	2400	0
bin	2600	0
bin	2800	0
bin	3000	0
bin	3200	0
bin	3400	0
bin	3600	0
bin	3800	0
bin	4000	0
bin	4200	1
bin	4400	397
bin	4600	0
bin	4800	0
bin	5000	0
bin	5200	0
bin	5400	0
bin	5600	0
bin	5800	0
bin	6000	0
bin	6200	0
bin	6400	0
bin	6600	0
bin	6800	0
bin	7000	0
bin	7200	0
bin	7400	0
bin	7600	0
bin	7800	0
bin	8000	1
bin	8200	0
bin	8400	0
bin	8600	0
bin	8800	0
bin	9000	0
bin	9200	0
bin	9400	0
bin	9600	0
bin	9800	1
bin	10000	0
bin	10200	10400
bin	10400	0
bin	10600	0
bin	10800	0
bin	11000	0
bin	11200	0
bin	11400	0
bin	11600	0
bin	11800	0
bin	12000	0
bin	12200	0
bin	12400	0
bin	12600	0
bin	12800	0
statistic bottleneck.router2.ppp[1].queue queueingTime:histogram
field count 5605
field mean 2.0096342551293488e-12
field stddev 8.6857044799019104e-11
field min 0
field max 3.8080000000000001e-09
field sum 1.1264000000000001e-08
field sqrsum 4.2300032000000001e-17
bin	-inf	0
bin	0	5602
bin	1.0000000000000003e-10	0
bin	2.0000000000000006e-10	0
bin	3.000000000000001e-10	0
bin	4.0000000000000012e-10	0
bin	5.0000000000000013e-10	0
bin	6.000000000000002e-10	0
bin	7.0000000000000017e-10	0
bin	8.0000000000000024e-10	0
bin	9.000000000000003e-10	0
bin	1.0000000000000003e-09	0
bin	1.1000000000000003e-09	0
bin	1.2000000000000004e-09	0
bin	1.3000000000000005e-09	0
bin	1.4000000000000003e-09	0
bin	1.5000000000000004e-09	0
bin	1.6000000000000005e-09	0
bin	1.7000000000000005e-09	0
bin	1.8000000000000006e-09	0
bin	1.9000000000000005e-09	0
bin	2.0000000000000005e-09	0
bin	2.1000000000000006e-09	0
bin	2.2000000000000007e-09	0
bin	2.3000000000000007e-09	0
bin	2.4000000000000008e-09	0
bin	2.5000000000000009e-09	0
bin	2.6000000000000009e-09	0
bin	2.7000000000000006e-09	0
bin	2.8000000000000007e-09	0
bin	2.9000000000000007e-09	0
bin	3.0000000000000008e-09	0
bin	3.1000000000000009e-09	0
bin	3.2000000000000009e-09	0
bin	3.300000000000001e-09	0
bin	3.4000000000000011e-09	0
bin	3.5000000000000011e-09	0
bin	3.6000000000000012e-09	1
bin	3.7000000000000013e-09	1
bin	3.8000000000000009e-09	1
bin	3.900000000000001e-09	0
bin	4.0000000000000011e-09	0
bin	4.1000000000000011e-09	0
bin	4.2000000000000012e-09	0
bin	4.3000000000000013e-09	0
bin	4.4000000000000013e-09	0
bin	4.5000000000000014e-09	0
bin	4.6000000000000015e-09	0
bin	4.7000000000000016e-09	0
bin	4.8000000000000016e-09	0
statistic bottleneck.router2.ppp[1].queue outgoingPacketLengths:histogram
field count 5605
field mean 379.38840321141839
field stddev 12.49673366466766
field min 336
field max 496
field sum 2126472
field sqrsum 807633984
bin	-inf	0
bin	295	0
bin	300	0
bin	305	0
bin	310	0
bin	315	0
bin	320	0
bin	325	0
bin	330	0
bin	335	1
bin	340	1
bin	345	0
bin	350	1
bin	355	0
bin	360	0
bin	365	31
bin	370	0
bin	375	5163
bin	380	8
bin	385	0
bin	390	0
bin	395	0
bin	400	0
bin	405	0
bin	410	0
bin	415	1
bin	420	397
bin	425	0
bin	430	1
bin	435	0
bin	440	0
bin	445	0
bin	450	0
bin	455	0
bin	460	0
bin	465	0
bin	470	0
bin	475	0
bin	480	0
bin	485	0
bin	490	0
bin	495	1
bin	500	0
bin	505	0
bin	510	0
bin	515	0
bin	520	0
bin	525	0
bin	530	0
bin	535	0
bin	540	0
statistic bottleneck.router2.ppp[1].queue flowQueueingTime:histogram
field count 0
field mean -nan
field stddev nan
field min nan
field max nan
field sum 0
field sqrsum 0
bin	-inf	0
bin	0	0
bin	1	0
statistic bottleneck.router2.ppp[1].queue incomingPacketLengths:histogram
field count 5605
field mean 379.38840321141839
field stddev 12.49673366466766
field min 336
field max 496
field sum 2126472
field sqrsum 807633984
bin	-inf	0
bin	295	0
bin	300	0
bin	305	0
bin	310	0
bin	315	0
bin	320	0
bin	325	0
bin	330	0
bin	335	1
bin	340	1
bin	345	0
bin	350	1
bin	355	0
bin	360	0
bin	365	31
bin	370	0
bin	375	5163
bin	380	8
bin	385	0
bin	390	0
bin	395	0
bin	400	0
bin	405	0
bin	410	0
bin	415	1
bin	420	397
bin	425	0
bin	430	1
bin	435	0
bin	440	0
bin	445	0
bin	450	0
bin	455	0
bin	460	0
bin	465	0
bin	470	0
bin	475	0
bin	480	0
bin	485	0
bin	490	0
bin	495	1
bin	500	0
bin	505	0
bin	510	0
bin	515	0
bin	520	0
bin	525	0
bin	530	0
bin	535	0
bin	540	0
statistic bottleneck.receiver.ppp[0].queue queueingTime:histogram
field count 5605
field mean 2.2551293487957181e-13
field stddev 9.7486153746078226e-12
field min 0
field max 4.3200000000000001e-10
field sum 1.264e-09
field sqrsum 5.3286400000000002e-19
bin	-inf	0
bin	0	5602
bin	1.0000000000000003e-11	0
bin	2.0000000000000005e-11	0
bin	3.0000000000000006e-11	0
bin	4.0000000000000011e-11	0
bin	5.0000000000000015e-11	0
bin	6.0000000000000013e-11	0
bin	7.0000000000000017e-11	0
bin	8.0000000000000021e-11	0
bin	9.0000000000000025e-11	0
bin	1.0000000000000003e-10	0
bin	1.1000000000000003e-10	0
bin	1.2000000000000003e-10	0
bin	1.3000000000000004e-10	0
bin	1.4000000000000003e-10	0
bin	1.5000000000000005e-10	0
bin	1.6000000000000004e-10	0
bin	1.7000000000000003e-10	0
bin	1.8000000000000005e-10	0
bin	1.9000000000000004e-10	0
bin	2.0000000000000006e-10	0
bin	2.1000000000000005e-10	0
bin	2.2000000000000007e-10	0
bin	2.3000000000000006e-10	0
bin	2.4000000000000005e-10	0
bin	2.5000000000000007e-10	0
bin	2.6000000000000008e-10	0
bin	2.7000000000000005e-10	0
bin	2.8000000000000007e-10	0
bin	2.9000000000000008e-10	0
bin	3.000000000000001e-10	0
bin	3.1000000000000007e-10	0
bin	3.2000000000000008e-10	0
bin	3.300000000000001e-10	0
bin	3.4000000000000007e-10	0
bin	3.5000000000000008e-10	0
bin	3.600000000000001e-10	0
bin	3.7000000000000012e-10	0
bin	3.8000000000000008e-10	0
bin	3.900000000000001e-10	0
bin	4.0000000000000012e-10	1
bin	4.1000000000000008e-10	0
bin	4.200000000000001e-10	1
bin	4.3000000000000012e-10	1
bin	4.4000000000000013e-10	0
bin	4.500000000000001e-10	0
bin	4.6000000000000012e-10	0
bin	4.7000000000000013e-10	0
bin	4.800000000000001e-10	0
bin	4.9000000000000017e-10	0
bin	5.0000000000000013e-10	0
bin	5.100000000000001e-10	0
bin	5.2000000000000017e-10	0
bin	5.3000000000000013e-10	0
bin	5.400000000000001e-10	0
statistic bottleneck.receiver.ppp[0].queue outgoingPacketLengths:histogram
field count 5605
field mean 379.38840321141839
field stddev 12.49673366466766
field min 336
field max 496
field sum 2126472
field sqrsum 807633984
bin	-inf	0
bin	295	0
bin	300	0
bin	305	0
bin	310	0
bin	315	0
bin	320	0
bin	325	0
bin	330	0
bin	335	1
bin	340	1
bin	345	0
bin	350	1
bin	355	0
bin	360	0
bin	365	31
bin	370	0
bin	375	5163
bin	380	8
bin	385	0
bin	390	0
bin	395	0
bin	400	0
bin	405	0
bin	410	0
bin	415	1
bin	420	397
bin	425	0
bin	430	1
bin	435	0
bin	440	0
bin	445	0
bin	450	0
bin	455	0
bin	460	0
bin	465	0
bin	470	0
bin	475	0
bin	480	0
bin	485	0
bin	490	0
bin	495	1
bin	500	0
bin	505	0
bin	510	0
bin	515	0
bin	520	0
bin	525	0
bin	530	0
bin	535	0
bin	540	0
statistic bottleneck.receiver.ppp[0].queue flowQueueingTime:histogram
field count 0
field mean -nan
field stddev nan
field min nan
field max nan
field sum 0
field sqrsum 0
bin	-inf	0
bin	0	0
bin	1	0
statistic bottleneck.receiver.ppp[0].queue incomingPacketLengths:histogram
field count 5605
field mean 379.38840321141839
field stddev 12.49673366466766
field min 336
field max 496
field sum 2126472
field sqrsum 807633984
bin	-inf	0
bin	295	0
bin	300	0
bin	305	0
bin	310	0
bin	315	0
bin	320	0
bin	325	0
bin	330	0
bin	335	1
bin	340	1
bin	345	0
bin	350	1
bin	355	0
bin	360	0
bin	365	31
bin	370	0
bin	375	5163
bin	380	8
bin	385	0
bin	390	0
bin	395	0
bin	400	0
bin	405	0
bin	410	0
bin	415	1
bin	420	397
bin	425	0
bin	430	1
bin	435	0
bin	440	0
bin	445	0
bin	450	0
bin	455	0
bin	460	0
bin	465	0
bin	470	0
bin	475	0
bin	480	0
bin	485	0
bin	490	0
bin	495	1
bin	500	0
bin	505	0
bin	510	0
bin	515	0
bin	520	0
bin	525	0
bin	530	0
bin	535	0
bin	540	0
scalar bottleneck.sender.lo[0].lo rcvdPkFromHl:vector(packetBytes):count 0
scalar bottleneck.sender.lo[0].lo rcvdPkFromHl:vector(packetBytes):sum 0
scalar bottleneck.sender.lo[0].lo rcvdPkFromHl:vector(packetBytes):sumweights 0
scalar bottleneck.sender.lo[0].lo rcvdPkFromHl:vector(packetBytes):mean -nan
scalar bottleneck.sender.lo[0].lo rcvdPkFromHl:vector(packetBytes):stddev nan
scalar bottleneck.sender.lo[0].lo rcvdPkFromHl:vector(packetBytes):min inf
scalar bottleneck.sender.lo[0].lo rcvdPkFromHl:vector(packetBytes):max -inf
scalar bottleneck.sender.lo[0].lo rcvdPkFromHl:vector(packetBytes):starttime nan
scalar bottleneck.sender.lo[0].lo rcvdPkFromHl:vector(packetBytes):endtime nan
scalar bottleneck.sender.lo[0].lo passedUpPk:vector(packetBytes):count 0
scalar bottleneck.sender.lo[0].lo passedUpPk:vector(packetBytes):sum 0
scalar bottleneck.sender.lo[0].lo passedUpPk:vector(packetBytes):sumweights 0
scalar bottleneck.sender.lo[0].lo passedUpPk:vector(packetBytes):mean -nan
scalar bottleneck.sender.lo[0].lo passedUpPk:vector(packetBytes):stddev nan
scalar bottleneck.sender.lo[0].lo passedUpPk:vector(packetBytes):min inf
scalar bottleneck.sender.lo[0].lo passedUpPk:vector(packetBytes):max -inf
scalar bottleneck.sender.lo[0].lo passedUpPk:vector(packetBytes):starttime nan
scalar bottleneck.sender.lo[0].lo passedUpPk:vector(packetBytes):endtime nan
scalar bottleneck.sender.lo[0] packetDropInterfaceDown:vector(packetBytes):count 0
scalar bottleneck.sender.lo[0] packetDropInterfaceDown:vector(packetBytes):sum 0
scalar bottleneck.sender.lo[0] packetDropInterfaceDown:vector(packetBytes):sumweights 0
scalar bottleneck.sender.lo[0] packetDropInterfaceDown:vector(packetBytes):mean -nan
scalar bottleneck.sender.lo[0] packetDropInterfaceDown:vector(packetBytes):stddev nan
scalar bottleneck.sender.lo[0] packetDropInterfaceDown:vector(packetBytes):min inf
scalar bottleneck.sender.lo[0] packetDropInterfaceDown:vector(packetBytes):max -inf
scalar bottleneck.sender.lo[0] packetDropInterfaceDown:vector(packetBytes):starttime nan
scalar bottleneck.sender.lo[0] packetDropInterfaceDown:vector(packetBytes):endtime nan
scalar bottleneck.sender.lo[0] packetDropNoCarrier:vector(packetBytes):count 0
scalar bottleneck.sender.lo[0] packetDropNoCarrier:vector(packetBytes):sum 0
scalar bottleneck.sender.lo[0] packetDropNoCarrier:vector(packetBytes):sumweights 0
scalar bottleneck.sender.lo[0] packetDropNoCarrier:vector(packetBytes):mean -nan
scalar bottleneck.sender.lo[0] packetDropNoCarrier:vector(packetBytes):stddev nan
scalar bottleneck.sender.lo[0] packetDropNoCarrier:vector(packetBytes):min inf
scalar bottleneck.sender.lo[0] packetDropNoCarrier:vector(packetBytes):max -inf
scalar bottleneck.sender.lo[0] packetDropNoCarrier:vector(packetBytes):starttime nan
scalar bottleneck.sender.lo[0] packetDropNoCarrier:vector(packetBytes):endtime nan
scalar bottleneck.sender.ppp[0].queue queueLength:vector:count 21237
scalar bottleneck.sender.ppp[0].queue queueLength:vector:sum 271752
scalar bottleneck.sender.ppp[0].queue queueLength:vector:sumweights 21237
scalar bottleneck.sender.ppp[0].queue queueLength:vector:mean 12.796157649385506
scalar bottleneck.sender.ppp[0].queue queueLength:vector:stddev 7.7737676744842208
scalar bottleneck.sender.ppp[0].queue queueLength:vector:min 0
scalar bottleneck.sender.ppp[0].queue queueLength:vector:max 52
scalar bottleneck.sender.ppp[0].queue queueLength:vector:starttime 0
scalar bottleneck.sender.ppp[0].queue queueLength:vector:endtime 4.000551279504001
scalar bottleneck.sender.ppp[0].queue queueBitLength:vector:count 21237
scalar bottleneck.sender.ppp[0].queue queueBitLength:vector:sum 2722609552
scalar bottleneck.sender.ppp[0].queue queueBitLength:vector:sumweights 21237
scalar bottleneck.sender.ppp[0].queue queueBitLength:vector:mean 128201.23143570185
scalar bottleneck.sender.ppp[0].queue queueBitLength:vector:stddev 79390.69222752015
scalar bottleneck.sender.ppp[0].queue queueBitLength:vector:min 0
scalar bottleneck.sender.ppp[0].queue queueBitLength:vector:max 530352
scalar bottleneck.sender.ppp[0].queue queueBitLength:vector:starttime 0
scalar bottleneck.sender.ppp[0].queue queueBitLength:vector:endtime 4.000551279504001
scalar bottleneck.sender.ppp[0].queue queueingTime:vector:count 10832
scalar bottleneck.sender.ppp[0].queue queueingTime:vector:sum 0.0014525184959999994
scalar bottleneck.sender.ppp[0].queue queueingTime:vector:sumweights 10832
scalar bottleneck.sender.ppp[0].queue queueingTime:vector:mean 1.3409513441654351e-07
scalar bottleneck.sender.ppp[0].queue queueingTime:vector:stddev 8.1512153979099196e-08
scalar bottleneck.sender.ppp[0].queue queueingTime:vector:min 0
scalar bottleneck.sender.ppp[0].queue queueingTime:vector:max 5.3539199999999998e-07
scalar bottleneck.sender.ppp[0].queue queueingTime:vector:starttime 0
scalar bottleneck.sender.ppp[0].queue queueingTime:vector:endtime 4.000551279504001
scalar bottleneck.sender.ppp[0].queue incomingPacketLengths:vector:count 10832
scalar bottleneck.sender.ppp[0].queue incomingPacketLengths:vector:sum 108292120
scalar bottleneck.sender.ppp[0].queue incomingPacketLengths:vector:sumweights 10832
scalar bottleneck.sender.ppp[0].queue incomingPacketLengths:vector:mean 9997.4261447562785
scalar bottleneck.sender.ppp[0].queue incomingPacketLengths:vector:stddev 1211.1620316807798
scalar bottleneck.sender.ppp[0].queue incomingPacketLengths:vector:min 344
scalar bottleneck.sender.ppp[0].queue incomingPacketLengths:vector:max 10240
scalar bottleneck.sender.ppp[0].queue incomingPacketLengths:vector:starttime 0
scalar bottleneck.sender.ppp[0].queue incomingPacketLengths:vector:endtime 4.000551279504001
scalar bottleneck.sender.ppp[0].queue incomingDataRate:vector:count 130
scalar bottleneck.sender.ppp[0].queue incomingDataRate:vector:sum 6216873195.8846073
scalar bottleneck.sender.ppp[0].queue incomingDataRate:vector:sumweights 130
scalar bottleneck.sender.ppp[0].queue incomingDataRate:vector:mean 47822101.506804675
scalar bottleneck.sender.ppp[0].queue incomingDataRate:vector:stddev 27181495.788812235
scalar bottleneck.sender.ppp[0].queue incomingDataRate:vector:min 0
scalar bottleneck.sender.ppp[0].queue incomingDataRate:vector:max 102570360.88846932
scalar bottleneck.sender.ppp[0].queue incomingDataRate:vector:starttime 0.10000000000000001
scalar bottleneck.sender.ppp[0].queue incomingDataRate:vector:endtime 4.1130017505270011
scalar bottleneck.sender.ppp[0].queue outgoingPacketLengths:vector:count 10832
scalar bottleneck.sender.ppp[0].queue outgoingPacketLengths:vector:sum 108292120
scalar bottleneck.sender.ppp[0].queue outgoingPacketLengths:vector:sumweights 10832
scalar bottleneck.sender.ppp[0].queue outgoingPacketLengths:vector:mean 9997.4261447562785
scalar bottleneck.sender.ppp[0].queue outgoingPacketLengths:vector:stddev 1211.1620316807798
scalar bottleneck.sender.ppp[0].queue outgoingPacketLengths:vector:min 344
scalar bottleneck.sender.ppp[0].queue outgoingPacketLengths:vector:max 10240
scalar bottleneck.sender.ppp[0].queue outgoingPacketLengths:vector:starttime 0
scalar bottleneck.sender.ppp[0].queue outgoingPacketLengths:vector:endtime 4.000551279504001
scalar bottleneck.sender.ppp[0].queue outgoingDataRate:vector:count 130
scalar bottleneck.sender.ppp[0].queue outgoingDataRate:vector:sum 6216849431.4180946
scalar bottleneck.sender.ppp[0].queue outgoingDataRate:vector:sumweights 130
scalar bottleneck.sender.ppp[0].queue outgoingDataRate:vector:mean 47821918.703216113
scalar bottleneck.sender.ppp[0].queue outgoingDataRate:vector:stddev 27181024.917473763
scalar bottleneck.sender.ppp[0].queue outgoingDataRate:vector:min 0
scalar bottleneck.sender.ppp[0].queue outgoingDataRate:vector:max 102568249.95636973
scalar bottleneck.sender.ppp[0].queue outgoingDataRate:vector:starttime 0.10000000000000001
scalar bottleneck.sender.ppp[0].queue outgoingDataRate:vector:endtime 4.1130017505270011
scalar bottleneck.sender.ppp[0].queue droppedPacketLengthsQueueOverflow:vector:count 0
scalar bottleneck.sender.ppp[0].queue droppedPacketLengthsQueueOverflow:vector:sum 0
scalar bottleneck.sender.ppp[0].queue droppedPacketLengthsQueueOverflow:vector:sumweights 0
scalar bottleneck.sender.ppp[0].queue droppedPacketLengthsQueueOverflow:vector:mean -nan
scalar bottleneck.sender.ppp[0].queue droppedPacketLengthsQueueOverflow:vector:stddev nan
scalar bottleneck.sender.ppp[0].queue droppedPacketLengthsQueueOverflow:vector:min inf
scalar bottleneck.sender.ppp[0].queue droppedPacketLengthsQueueOverflow:vector:max -inf
scalar bottleneck.sender.ppp[0].queue droppedPacketLengthsQueueOverflow:vector:starttime nan
scalar bottleneck.sender.ppp[0].queue droppedPacketLengthsQueueOverflow:vector:endtime nan
scalar bottleneck.sender.ppp[0].queue flowQueueingTime:vector:count 0
scalar bottleneck.sender.ppp[0].queue flowQueueingTime:vector:sum 0
scalar bottleneck.sender.ppp[0].queue flowQueueingTime:vector:sumweights 0
scalar bottleneck.sender.ppp[0].queue flowQueueingTime:vector:mean -nan
scalar bottleneck.sender.ppp[0].queue flowQueueingTime:vector:stddev nan
scalar bottleneck.sender.ppp[0].queue flowQueueingTime:vector:min inf
scalar bottleneck.sender.ppp[0].queue flowQueueingTime:vector:max -inf
scalar bottleneck.sender.ppp[0].queue flowQueueingTime:vector:starttime nan
scalar bottleneck.sender.ppp[0].queue flowQueueingTime:vector:endtime nan
scalar bottleneck.sender.ppp[0].queue flowIncomingDataRate:vector:count 42
scalar bottleneck.sender.ppp[0].queue flowIncomingDataRate:vector:sum 0
scalar bottleneck.sender.ppp[0].queue flowIncomingDataRate:vector:sumweights 42
scalar bottleneck.sender.ppp[0].queue flowIncomingDataRate:vector:mean 0
scalar bottleneck.sender.ppp[0].queue flowIncomingDataRate:vector:stddev 0
scalar bottleneck.sender.ppp[0].queue flowIncomingDataRate:vector:min 0
scalar bottleneck.sender.ppp[0].queue flowIncomingDataRate:vector:max 0
scalar bottleneck.sender.ppp[0].queue flowIncomingDataRate:vector:starttime 0.10000000000000001
scalar bottleneck.sender.ppp[0].queue flowIncomingDataRate:vector:endtime 4.1130017505270011
scalar bottleneck.sender.ppp[0].queue flowOutgoingDataRate:vector:count 42
scalar bottleneck.sender.ppp[0].queue flowOutgoingDataRate:vector:sum 0
scalar bottleneck.sender.ppp[0].queue flowOutgoingDataRate:vector:sumweights 42
scalar bottleneck.sender.ppp[0].queue flowOutgoingDataRate:vector:mean 0
scalar bottleneck.sender.ppp[0].queue flowOutgoingDataRate:vector:stddev 0
scalar bottleneck.sender.ppp[0].queue flowOutgoingDataRate:vector:min 0
scalar bottleneck.sender.ppp[0].queue flowOutgoingDataRate:vector:max 0
scalar bottleneck.sender.ppp[0].queue flowOutgoingDataRate:vector:starttime 0.10000000000000001
scalar bottleneck.sender.ppp[0].queue flowOutgoingDataRate:vector:endtime 4.1130017505270011
scalar bottleneck.sender.ppp[0].ppp transmissionState:vector:count 21665
scalar bottleneck.sender.ppp[0].ppp transmissionState:vector:sum 10832
scalar bottleneck.sender.ppp[0].ppp transmissionState:vector:sumweights 21665
[...]
scalar bottleneck.receiver.quic packetNumberSent_cid=0:vector:stddev 1618.1662991917676
scalar bottleneck.receiver.quic packetNumberSent_cid=0:vector:min 0
scalar bottleneck.receiver.quic packetNumberSent_cid=0:vector:max 5601
scalar bottleneck.receiver.quic packetNumberSent_cid=0:vector:starttime 0.0050001185600000017
scalar bottleneck.receiver.quic packetNumberSent_cid=0:vector:endtime 4.0050000054720005
scalar bottleneck.receiver.quic cwnd_cid=0:vector:count 1
scalar bottleneck.receiver.quic cwnd_cid=0:vector:sum 12000
scalar bottleneck.receiver.quic cwnd_cid=0:vector:sumweights 1
scalar bottleneck.receiver.quic cwnd_cid=0:vector:mean 12000
scalar bottleneck.receiver.quic cwnd_cid=0:vector:stddev nan
scalar bottleneck.receiver.quic cwnd_cid=0:vector:min 12000
scalar bottleneck.receiver.quic cwnd_cid=0:vector:max 12000
scalar bottleneck.receiver.quic cwnd_cid=0:vector:starttime 0.0050001185600000017
scalar bottleneck.receiver.quic cwnd_cid=0:vector:endtime 0.0050001185600000017
scalar bottleneck.receiver.quic bytesInFlight_cid=0:vector:count 805
scalar bottleneck.receiver.quic bytesInFlight_cid=0:vector:sum 49923
scalar bottleneck.receiver.quic bytesInFlight_cid=0:vector:sumweights 805
scalar bottleneck.receiver.quic bytesInFlight_cid=0:vector:mean 62.016149068322981
scalar bottleneck.receiver.quic bytesInFlight_cid=0:vector:stddev 13.329576121532936
scalar bottleneck.receiver.quic bytesInFlight_cid=0:vector:min 0
scalar bottleneck.receiver.quic bytesInFlight_cid=0:vector:max 76
scalar bottleneck.receiver.quic bytesInFlight_cid=0:vector:starttime 0.0050001185600000017
scalar bottleneck.receiver.quic bytesInFlight_cid=0:vector:endtime 4.0050000054720005
scalar bottleneck.receiver.quic partialBytesAcked_cid=0:vector:count 3
scalar bottleneck.receiver.quic partialBytesAcked_cid=0:vector:sum 0
scalar bottleneck.receiver.quic partialBytesAcked_cid=0:vector:sumweights 3
scalar bottleneck.receiver.quic partialBytesAcked_cid=0:vector:mean 0
scalar bottleneck.receiver.quic partialBytesAcked_cid=0:vector:stddev 0
scalar bottleneck.receiver.quic partialBytesAcked_cid=0:vector:min 0
scalar bottleneck.receiver.quic partialBytesAcked_cid=0:vector:max 0
scalar bottleneck.receiver.quic partialBytesAcked_cid=0:vector:starttime 0.0050001185600000017
scalar bottleneck.receiver.quic partialBytesAcked_cid=0:vector:endtime 0.050000148552000009
scalar bottleneck.receiver.quic availableRwnd_cid=0:vector:count 0
scalar bottleneck.receiver.quic availableRwnd_cid=0:vector:sum 0
scalar bottleneck.receiver.quic availableRwnd_cid=0:vector:sumweights 0
scalar bottleneck.receiver.quic availableRwnd_cid=0:vector:mean -nan
scalar bottleneck.receiver.quic availableRwnd_cid=0:vector:stddev nan
scalar bottleneck.receiver.quic availableRwnd_cid=0:vector:min inf
scalar bottleneck.receiver.quic availableRwnd_cid=0:vector:max -inf
scalar bottleneck.receiver.quic availableRwnd_cid=0:vector:starttime nan
scalar bottleneck.receiver.quic availableRwnd_cid=0:vector:endtime nan
scalar bottleneck.receiver.quic blockFrameOffset_cid=0:vector:count 0
scalar bottleneck.receiver.quic blockFrameOffset_cid=0:vector:sum 0
scalar bottleneck.receiver.quic blockFrameOffset_cid=0:vector:sumweights 0
scalar bottleneck.receiver.quic blockFrameOffset_cid=0:vector:mean -nan
scalar bottleneck.receiver.quic blockFrameOffset_cid=0:vector:stddev nan
scalar bottleneck.receiver.quic blockFrameOffset_cid=0:vector:min inf
scalar bottleneck.receiver.quic blockFrameOffset_cid=0:vector:max -inf
scalar bottleneck.receiver.quic blockFrameOffset_cid=0:vector:starttime nan
scalar bottleneck.receiver.quic blockFrameOffset_cid=0:vector:endtime nan
scalar bottleneck.receiver.quic maxDataFrameOffset_cid=0:vector:count 0
scalar bottleneck.receiver.quic maxDataFrameOffset_cid=0:vector:sum 0
scalar bottleneck.receiver.quic maxDataFrameOffset_cid=0:vector:sumweights 0
scalar bottleneck.receiver.quic maxDataFrameOffset_cid=0:vector:mean -nan
scalar bottleneck.receiver.quic maxDataFrameOffset_cid=0:vector:stddev nan
scalar bottleneck.receiver.quic maxDataFrameOffset_cid=0:vector:min inf
scalar bottleneck.receiver.quic maxDataFrameOffset_cid=0:vector:max -inf
scalar bottleneck.receiver.quic maxDataFrameOffset_cid=0:vector:starttime nan
scalar bottleneck.receiver.quic maxDataFrameOffset_cid=0:vector:endtime nan
scalar bottleneck.receiver.quic consumedData_cid=0:vector:count 10799
scalar bottleneck.receiver.quic consumedData_cid=0:vector:sum 70210226528
scalar bottleneck.receiver.quic consumedData_cid=0:vector:sumweights 10799
scalar bottleneck.receiver.quic consumedData_cid=0:vector:mean 6501548.8960088901
scalar bottleneck.receiver.quic consumedData_cid=0:vector:stddev 3752610.1299023679
scalar bottleneck.receiver.quic consumedData_cid=0:vector:min 1234
scalar bottleneck.receiver.quic consumedData_cid=0:vector:max 13000000
scalar bottleneck.receiver.quic consumedData_cid=0:vector:starttime 2.0050001235520005
scalar bottleneck.receiver.quic consumedData_cid=0:vector:endtime 3.9955512737440007
scalar bottleneck.sender.quic latestRtt_cid=0:vector:count 5573
scalar bottleneck.sender.quic latestRtt_cid=0:vector:sum 55.738717346952214
scalar bottleneck.sender.quic latestRtt_cid=0:vector:sumweights 5573
scalar bottleneck.sender.quic latestRtt_cid=0:vector:mean 0.010001564210829395
scalar bottleneck.sender.quic latestRtt_cid=0:vector:stddev 8.2247783429037372e-07
scalar bottleneck.sender.quic latestRtt_cid=0:vector:min 0.01000001008
scalar bottleneck.sender.quic latestRtt_cid=0:vector:max 0.010005459152000001
scalar bottleneck.sender.quic latestRtt_cid=0:vector:starttime 0.010000123744000002
scalar bottleneck.sender.quic latestRtt_cid=0:vector:endtime 3.9905485370320006
scalar bottleneck.sender.quic sendBufferUnsentAppData_cid=0_sid=0:vector:count 10900
scalar bottleneck.sender.quic sendBufferUnsentAppData_cid=0_sid=0:vector:sum 1763980972
scalar bottleneck.sender.quic sendBufferUnsentAppData_cid=0_sid=0:vector:sumweights 10900
scalar bottleneck.sender.quic sendBufferUnsentAppData_cid=0_sid=0:vector:mean 161833.11669724769
scalar bottleneck.sender.quic sendBufferUnsentAppData_cid=0_sid=0:vector:stddev 38054.156448219357
scalar bottleneck.sender.quic sendBufferUnsentAppData_cid=0_sid=0:vector:min 65000
scalar bottleneck.sender.quic sendBufferUnsentAppData_cid=0_sid=0:vector:max 227500
scalar bottleneck.sender.quic sendBufferUnsentAppData_cid=0_sid=0:vector:starttime 2
scalar bottleneck.sender.quic sendBufferUnsentAppData_cid=0_sid=0:vector:endtime 3.9905485370320006
scalar bottleneck.sender.quic streamRcvAppData_cid=0_sid=0:vector:count 1
scalar bottleneck.sender.quic streamRcvAppData_cid=0_sid=0:vector:sum 0
scalar bottleneck.sender.quic streamRcvAppData_cid=0_sid=0:vector:sumweights 1
scalar bottleneck.sender.quic streamRcvAppData_cid=0_sid=0:vector:mean 0
scalar bottleneck.sender.quic streamRcvAppData_cid=0_sid=0:vector:stddev nan
scalar bottleneck.sender.quic streamRcvAppData_cid=0_sid=0:vector:min 0
scalar bottleneck.sender.quic streamRcvAppData_cid=0_sid=0:vector:max 0
scalar bottleneck.sender.quic streamRcvAppData_cid=0_sid=0:vector:starttime 2
scalar bottleneck.sender.quic streamRcvAppData_cid=0_sid=0:vector:endtime 2
scalar bottleneck.sender.quic streamRcvAppData_cid=0_sid=0:vector(sum):count 1
scalar bottleneck.sender.quic streamRcvAppData_cid=0_sid=0:vector(sum):sum 0
scalar bottleneck.sender.quic streamRcvAppData_cid=0_sid=0:vector(sum):sumweights 1
scalar bottleneck.sender.quic streamRcvAppData_cid=0_sid=0:vector(sum):mean 0
scalar bottleneck.sender.quic streamRcvAppData_cid=0_sid=0:vector(sum):stddev nan
scalar bottleneck.sender.quic streamRcvAppData_cid=0_sid=0:vector(sum):min 0
scalar bottleneck.sender.quic streamRcvAppData_cid=0_sid=0:vector(sum):max 0
scalar bottleneck.sender.quic streamRcvAppData_cid=0_sid=0:vector(sum):starttime 2
scalar bottleneck.sender.quic streamRcvAppData_cid=0_sid=0:vector(sum):endtime 2
scalar bottleneck.sender.quic availableRwnd_cid=0_sid=0:vector:count 11197
scalar bottleneck.sender.quic availableRwnd_cid=0_sid=0:vector:sum 179020972
scalar bottleneck.sender.quic availableRwnd_cid=0_sid=0:vector:sumweights 11197
scalar bottleneck.sender.quic availableRwnd_cid=0_sid=0:vector:mean 15988.297936947396
scalar bottleneck.sender.quic availableRwnd_cid=0_sid=0:vector:stddev 10021.180110437637
scalar bottleneck.sender.quic availableRwnd_cid=0_sid=0:vector:min 0
scalar bottleneck.sender.quic availableRwnd_cid=0_sid=0:vector:max 63766
scalar bottleneck.sender.quic availableRwnd_cid=0_sid=0:vector:starttime 2
scalar bottleneck.sender.quic availableRwnd_cid=0_sid=0:vector:endtime 3.9905485370320006
scalar bottleneck.sender.quic blockFrameOffset_cid=0_sid=0:vector:count 399
scalar bottleneck.sender.quic blockFrameOffset_cid=0_sid=0:vector:sum 2606467500
scalar bottleneck.sender.quic blockFrameOffset_cid=0_sid=0:vector:sumweights 399
scalar bottleneck.sender.quic blockFrameOffset_cid=0_sid=0:vector:mean 6532500
scalar bottleneck.sender.quic blockFrameOffset_cid=0_sid=0:vector:stddev 3748082.8432680084
scalar bottleneck.sender.quic blockFrameOffset_cid=0_sid=0:vector:min 65000
scalar bottleneck.sender.quic blockFrameOffset_cid=0_sid=0:vector:max 13000000
scalar bottleneck.sender.quic blockFrameOffset_cid=0_sid=0:vector:starttime 2
scalar bottleneck.sender.quic blockFrameOffset_cid=0_sid=0:vector:endtime 3.9905485370320006
scalar bottleneck.sender.quic maxDataFrameOffset_cid=0_sid=0:vector:count 0
scalar bottleneck.sender.quic maxDataFrameOffset_cid=0_sid=0:vector:sum 0
scalar bottleneck.sender.quic maxDataFrameOffset_cid=0_sid=0:vector:sumweights 0
scalar bottleneck.sender.quic maxDataFrameOffset_cid=0_sid=0:vector:mean -nan
scalar bottleneck.sender.quic maxDataFrameOffset_cid=0_sid=0:vector:stddev nan
scalar bottleneck.sender.quic maxDataFrameOffset_cid=0_sid=0:vector:min inf
scalar bottleneck.sender.quic maxDataFrameOffset_cid=0_sid=0:vector:max -inf
scalar bottleneck.sender.quic maxDataFrameOffset_cid=0_sid=0:vector:starttime nan
scalar bottleneck.sender.quic maxDataFrameOffset_cid=0_sid=0:vector:endtime nan
scalar bottleneck.sender.quic consumedData_cid=0_sid=0:vector:count 0
scalar bottleneck.sender.quic consumedData_cid=0_sid=0:vector:sum 0
scalar bottleneck.sender.quic consumedData_cid=0_sid=0:vector:sumweights 0
scalar bottleneck.sender.quic consumedData_cid=0_sid=0:vector:mean -nan
scalar bottleneck.sender.quic consumedData_cid=0_sid=0:vector:stddev nan
scalar bottleneck.sender.quic consumedData_cid=0_sid=0:vector:min inf
scalar bottleneck.sender.quic consumedData_cid=0_sid=0:vector:max -inf
scalar bottleneck.sender.quic consumedData_cid=0_sid=0:vector:starttime nan
scalar bottleneck.sender.quic consumedData_cid=0_sid=0:vector:endtime nan
scalar bottleneck.sender.quic streamRcvFrameStartOffset_cid=0_sid=0:vector:count 0
scalar bottleneck.sender.quic streamRcvFrameStartOffset_cid=0_sid=0:vector:sum 0
scalar bottleneck.sender.quic streamRcvFrameStartOffset_cid=0_sid=0:vector:sumweights 0
scalar bottleneck.sender.quic streamRcvFrameStartOffset_cid=0_sid=0:vector:mean -nan
scalar bottleneck.sender.quic streamRcvFrameStartOffset_cid=0_sid=0:vector:stddev nan
scalar bottleneck.sender.quic streamRcvFrameStartOffset_cid=0_sid=0:vector:min inf
scalar bottleneck.sender.quic streamRcvFrameStartOffset_cid=0_sid=0:vector:max -inf
scalar bottleneck.sender.quic streamRcvFrameStartOffset_cid=0_sid=0:vector:starttime nan
scalar bottleneck.sender.quic streamRcvFrameStartOffset_cid=0_sid=0:vector:endtime nan
scalar bottleneck.sender.quic streamRcvFrameEndOffset_cid=0_sid=0:vector:count 0
scalar bottleneck.sender.quic streamRcvFrameEndOffset_cid=0_sid=0:vector:sum 0
scalar bottleneck.sender.quic streamRcvFrameEndOffset_cid=0_sid=0:vector:sumweights 0
scalar bottleneck.sender.quic streamRcvFrameEndOffset_cid=0_sid=0:vector:mean -nan
scalar bottleneck.sender.quic streamRcvFrameEndOffset_cid=0_sid=0:vector:stddev nan
scalar bottleneck.sender.quic streamRcvFrameEndOffset_cid=0_sid=0:vector:min inf
scalar bottleneck.sender.quic streamRcvFrameEndOffset_cid=0_sid=0:vector:max -inf
scalar bottleneck.sender.quic streamRcvFrameEndOffset_cid=0_sid=0:vector:starttime nan
scalar bottleneck.sender.quic streamRcvFrameEndOffset_cid=0_sid=0:vector:endtime nan
scalar bottleneck.receiver.quic sendBufferUnsentAppData_cid=0_sid=0:vector:count 0
scalar bottleneck.receiver.quic sendBufferUnsentAppData_cid=0_sid=0:vector:sum 0
scalar bottleneck.receiver.quic sendBufferUnsentAppData_cid=0_sid=0:vector:sumweights 0
scalar bottleneck.receiver.quic sendBufferUnsentAppData_cid=0_sid=0:vector:mean -nan
scalar bottleneck.receiver.quic sendBufferUnsentAppData_cid=0_sid=0:vector:stddev nan
scalar bottleneck.receiver.quic sendBufferUnsentAppData_cid=0_sid=0:vector:min inf
scalar bottleneck.receiver.quic sendBufferUnsentAppData_cid=0_sid=0:vector:max -inf
scalar bottleneck.receiver.quic sendBufferUnsentAppData_cid=0_sid=0:vector:starttime nan
scalar bottleneck.receiver.quic sendBufferUnsentAppData_cid=0_sid=0:vector:endtime nan
scalar bottleneck.receiver.quic streamRcvAppData_cid=0_sid=0:vector:count 10800
scalar bottleneck.receiver.quic streamRcvAppData_cid=0_sid=0:vector:sum 13000000
scalar bottleneck.receiver.quic streamRcvAppData_cid=0_sid=0:vector:sumweights 10800
scalar bottleneck.receiver.quic streamRcvAppData_cid=0_sid=0:vector:mean 1203.7037037037037
scalar bottleneck.receiver.quic streamRcvAppData_cid=0_sid=0:vector:stddev 138.19762099117472
scalar bottleneck.receiver.quic streamRcvAppData_cid=0_sid=0:vector:min 0
scalar bottleneck.receiver.quic streamRcvAppData_cid=0_sid=0:vector:max 1234
scalar bottleneck.receiver.quic streamRcvAppData_cid=0_sid=0:vector:starttime 2.0050001235520005
scalar bottleneck.receiver.quic streamRcvAppData_cid=0_sid=0:vector:endtime 3.9955512737440007
scalar bottleneck.receiver.quic streamRcvAppData_cid=0_sid=0:vector(sum):count 10800
scalar bottleneck.receiver.quic streamRcvAppData_cid=0_sid=0:vector(sum):sum 70210226528
scalar bottleneck.receiver.quic streamRcvAppData_cid=0_sid=0:vector(sum):sumweights 10800
scalar bottleneck.receiver.quic streamRcvAppData_cid=0_sid=0:vector(sum):mean 6500946.9007407408
scalar bottleneck.receiver.quic streamRcvAppData_cid=0_sid=0:vector(sum):stddev 3752957.8563341484
scalar bottleneck.receiver.quic streamRcvAppData_cid=0_sid=0:vector(sum):min 0
scalar bottleneck.receiver.quic streamRcvAppData_cid=0_sid=0:vector(sum):max 13000000
scalar bottleneck.receiver.quic streamRcvAppData_cid=0_sid=0:vector(sum):starttime 2.0050001235520005
scalar bottleneck.receiver.quic streamRcvAppData_cid=0_sid=0:vector(sum):endtime 3.9955512737440007
scalar bottleneck.receiver.quic availableRwnd_cid=0_sid=0:vector:count 0
scalar bottleneck.receiver.quic availableRwnd_cid=0_sid=0:vector:sum 0
scalar bottleneck.receiver.quic availableRwnd_cid=0_sid=0:vector:sumweights 0
scalar bottleneck.receiver.quic availableRwnd_cid=0_sid=0:vector:mean -nan
scalar bottleneck.receiver.quic availableRwnd_cid=0_sid=0:vector:stddev nan
scalar bottleneck.receiver.quic availableRwnd_cid=0_sid=0:vector:min inf
scalar bottleneck.receiver.quic availableRwnd_cid=0_sid=0:vector:max -inf
scalar bottleneck.receiver.quic availableRwnd_cid=0_sid=0:vector:starttime nan
scalar bottleneck.receiver.quic availableRwnd_cid=0_sid=0:vector:endtime nan
scalar bottleneck.receiver.quic blockFrameOffset_cid=0_sid=0:vector:count 0
scalar bottleneck.receiver.quic blockFrameOffset_cid=0_sid=0:vector:sum 0
scalar bottleneck.receiver.quic blockFrameOffset_cid=0_sid=0:vector:sumweights 0
scalar bottleneck.receiver.quic blockFrameOffset_cid=0_sid=0:vector:mean -nan
scalar bottleneck.receiver.quic blockFrameOffset_cid=0_sid=0:vector:stddev nan
scalar bottleneck.receiver.quic blockFrameOffset_cid=0_sid=0:vector:min inf
scalar bottleneck.receiver.quic blockFrameOffset_cid=0_sid=0:vector:max -inf
scalar bottleneck.receiver.quic blockFrameOffset_cid=0_sid=0:vector:starttime nan
scalar bottleneck.receiver.quic blockFrameOffset_cid=0_sid=0:vector:endtime nan
scalar bottleneck.receiver.quic maxDataFrameOffset_cid=0_sid=0:vector:count 400
scalar bottleneck.receiver.quic maxDataFrameOffset_cid=0_sid=0:vector:sum 2632500000
scalar bottleneck.receiver.quic maxDataFrameOffset_cid=0_sid=0:vector:sumweights 400
scalar bottleneck.receiver.quic maxDataFrameOffset_cid=0_sid=0:vector:mean 6581250
scalar bottleneck.receiver.quic maxDataFrameOffset_cid=0_sid=0:vector:stddev 3757464.7924720021
scalar bottleneck.receiver.quic maxDataFrameOffset_cid=0_sid=0:vector:min 97500
scalar bottleneck.receiver.quic maxDataFrameOffset_cid=0_sid=0:vector:max 13065000
scalar bottleneck.receiver.quic maxDataFrameOffset_cid=0_sid=0:vector:starttime 2.0050028005120004
scalar bottleneck.receiver.quic maxDataFrameOffset_cid=0_sid=0:vector:endtime 3.9955512737440007
scalar bottleneck.receiver.quic consumedData_cid=0_sid=0:vector:count 10799
scalar bottleneck.receiver.quic consumedData_cid=0_sid=0:vector:sum 70210226528
scalar bottleneck.receiver.quic consumedData_cid=0_sid=0:vector:sumweights 10799
scalar bottleneck.receiver.quic consumedData_cid=0_sid=0:vector:mean 6501548.8960088901
scalar bottleneck.receiver.quic consumedData_cid=0_sid=0:vector:stddev 3752610.1299023679
scalar bottleneck.receiver.quic consumedData_cid=0_sid=0:vector:min 1234
scalar bottleneck.receiver.quic consumedData_cid=0_sid=0:vector:max 13000000
scalar bottleneck.receiver.quic consumedData_cid=0_sid=0:vector:starttime 2.0050001235520005
scalar bottleneck.receiver.quic consumedData_cid=0_sid=0:vector:endtime 3.9955512737440007
scalar bottleneck.receiver.quic streamRcvFrameStartOffset_cid=0_sid=0:vector:count 10799
scalar bottleneck.receiver.quic streamRcvFrameStartOffset_cid=0_sid=0:vector:sum 70197226528
scalar bottleneck.receiver.quic streamRcvFrameStartOffset_cid=0_sid=0:vector:sumweights 10799
scalar bottleneck.receiver.quic streamRcvFrameStartOffset_cid=0_sid=0:vector:mean 6500345.0808408186
scalar bottleneck.receiver.quic streamRcvFrameStartOffset_cid=0_sid=0:vector:stddev 3752610.4337187824
scalar bottleneck.receiver.quic streamRcvFrameStartOffset_cid=0_sid=0:vector:min 0
scalar bottleneck.receiver.quic streamRcvFrameStartOffset_cid=0_sid=0:vector:max 12999500
scalar bottleneck.receiver.quic streamRcvFrameStartOffset_cid=0_sid=0:vector:starttime 2.0050001235520005
scalar bottleneck.receiver.quic streamRcvFrameStartOffset_cid=0_sid=0:vector:endtime 3.9955512737440007
scalar bottleneck.receiver.quic streamRcvFrameEndOffset_cid=0_sid=0:vector:count 10799
scalar bottleneck.receiver.quic streamRcvFrameEndOffset_cid=0_sid=0:vector:sum 70210226528
scalar bottleneck.receiver.quic streamRcvFrameEndOffset_cid=0_sid=0:vector:sumweights 10799
scalar bottleneck.receiver.quic streamRcvFrameEndOffset_cid=0_sid=0:vector:mean 6501548.8960088901
scalar bottleneck.receiver.quic streamRcvFrameEndOffset_cid=0_sid=0:vector:stddev 3752610.1299023679
scalar bottleneck.receiver.quic streamRcvFrameEndOffset_cid=0_sid=0:vector:min 1234
scalar bottleneck.receiver.quic streamRcvFrameEndOffset_cid=0_sid=0:vector:max 13000000
scalar bottleneck.receiver.quic streamRcvFrameEndOffset_cid=0_sid=0:vector:starttime 2.0050001235520005
scalar bottleneck.receiver.quic streamRcvFrameEndOffset_cid=0_sid=0:vector:endtime 3.9955512737440007
scalar bottleneck.receiver.quic totalRcvAppData_cid=0:vector:count 10799
scalar bottleneck.receiver.quic totalRcvAppData_cid=0:vector:sum 70210226528
scalar bottleneck.receiver.quic totalRcvAppData_cid=0:vector:sumweights 10799
scalar bottleneck.receiver.quic totalRcvAppData_cid=0:vector:mean 6501548.8960088901
scalar bottleneck.receiver.quic totalRcvAppData_cid=0:vector:stddev 3752610.1299023679
scalar bottleneck.receiver.quic totalRcvAppData_cid=0:vector:min 1234
scalar bottleneck.receiver.quic totalRcvAppData_cid=0:vector:max 13000000
scalar bottleneck.receiver.quic totalRcvAppData_cid=0:vector:starttime 2.0050001235520005
scalar bottleneck.receiver.quic totalRcvAppData_cid=0:vector:endtime 3.9955512737440007

