version 3
run Eager-0-20230411-10:34:11-43185
attr configname Eager
attr datetime 20230411-10:34:11
attr datetimef 20230411-103411
attr description "Eager gate scheduling"
attr experiment Eager
attr inifile omnetpp.ini
attr iterationvars ""
attr iterationvarsd ""
attr iterationvarsf ""
attr measurement ""
attr network inet.networks.tsn.TsnDumbbellNetwork
attr processid 43185
attr repetition 0
attr replication #0
attr resultdir results
attr runnumber 0
attr seedset 0
config **.param-recording false
config image-path /home/levy/workspace/inet/images
config sim-time-limit 0.2s
config network inet.networks.tsn.TsnDumbbellNetwork
config description "Eager gate scheduling"
config sim-time-limit 0.2s
config *.switch1.typename TsnSwitch1
config *.switch2.typename TsnSwitch2
config *.client*.numApps 2
config *.client*.app[*].typename UdpSourceApp
config *.client*.app[0].display-name "best effort"
config *.client*.app[1].display-name video
config *.client*.app[0].io.destAddress "\"server1\""
config *.client*.app[1].io.destAddress "\"server2\""
config *.client1.app[0].io.destPort 1000
config *.client1.app[1].io.destPort 1002
config *.client2.app[0].io.destPort 1001
config *.client2.app[1].io.destPort 1003
config *.client*.app[*].source.packetNameFormat "\"%M-%m-%c\""
config *.client*.app[0].source.packetLength 1000B
config *.client*.app[1].source.packetLength 500B
config *.client*.app[0].source.productionInterval 500us
config *.client*.app[1].source.productionInterval 250us
config *.server*.numApps 4
config *.server*.app[*].typename UdpSinkApp
config *.server*.app[0..1].display-name "best effort"
config *.server*.app[2..3].display-name video
config *.server*.app[0].io.localPort 1000
config *.server*.app[1].io.localPort 1001
config *.server*.app[2].io.localPort 1002
config *.server*.app[3].io.localPort 1003
config *.client*.hasOutgoingStreams true
config *.client*.bridging.streamIdentifier.identifier.mapping "[{stream: \"best effort\", packetFilter: expr(udp.destPort == 1000)},\n                                                          {stream: \"video\", packetFilter: expr(udp.destPort == 1002)},\n\t\t\t\t\t\t\t\t\t\t\t\t\t\t  {stream: \"best effort\", packetFilter: expr(udp.destPort == 1001)},\n\t\t\t\t\t\t\t\t\t\t\t\t\t\t  {stream: \"video\", packetFilter: expr(udp.destPort == 1003)}]"
config *.client*.bridging.streamCoder.encoder.mapping "[{stream: \"best effort\", pcp: 0},\n                                                  {stream: \"video\", pcp: 4}]"
config *.switch*.hasIncomingStreams true
config *.switch*.hasOutgoingStreams true
config *.switch*.bridging.streamCoder.decoder.mapping "[{pcp: 0, stream: \"best effort\"},\n                                                  {pcp: 4, stream: \"video\"}]"
config *.switch*.bridging.streamCoder.encoder.mapping "[{stream: \"best effort\", pcp: 0},\n                                                  {stream: \"video\", pcp: 4}]"
config *.server*.hasIncomingStreams true
config *.switch*.hasEgressTrafficShaping true
config *.switch*.eth[*].macLayer.queue.numTrafficClasses 2
config *.switch*.eth[*].macLayer.queue.queue[0].display-name "best effort"
config *.switch*.eth[*].macLayer.queue.queue[1].display-name video
config *.gateScheduleConfigurator.typename EagerGateScheduleConfigurator
config *.gateScheduleConfigurator.gateCycleDuration 1ms
config *.gateScheduleConfigurator.configuration "[{pcp: 0, gateIndex: 0, application: \"app[0]\", source: \"client1\", destination: \"server1\", packetLength: 1000B + 58B, packetInterval: 500us, maxLatency: 500us},\n    {pcp: 4, gateIndex: 1, application: \"app[1]\", source: \"client1\", destination: \"server2\", packetLength: 500B + 58B, packetInterval: 250us, maxLatency: 500us},\n    {pcp: 0, gateIndex: 0, application: \"app[0]\", source: \"client2\", destination: \"server1\", packetLength: 1000B + 58B, packetInterval: 500us, maxLatency: 500us},\n    {pcp: 4, gateIndex: 1, application: \"app[1]\", source: \"client2\", destination: \"server2\", packetLength: 500B + 58B, packetInterval: 250us, maxLatency: 500us}]"
config *.visualizer.gateScheduleVisualizer.displayGateSchedules true
config *.visualizer.gateScheduleVisualizer.displayDuration 100us
config *.visualizer.gateScheduleVisualizer.gateFilter "\"*.switch1.eth[2].** or *.switch2.eth[0].**.transmissionGate[0] or *.switch2.eth[1].**.transmissionGate[1]\""
config *.visualizer.gateScheduleVisualizer.height 16

scalar TsnDumbbellNetwork.client1.bridging.directionReverser.reverser outgoingPackets:count 0
attr recordingmode count
attr source "merge(packetPushedOut, packetPulledOut)"
attr title "outgoing packets, count"
attr unit pk
scalar TsnDumbbellNetwork.client1.bridging.directionReverser.reverser outgoingPacketLengths:sum 0
attr interpolationmode none
attr recordingmode sum
attr source "packetLength(merge(packetPushedOut, packetPulledOut))"
attr title "outgoing packet lengths, sum"
attr unit b
statistic TsnDumbbellNetwork.client1.bridging.directionReverser.reverser outgoingPacketLengths:histogram
field count 0
field mean -nan
field stddev nan
field min nan
field max nan
field sum 0
field sqrsum 0
attr interpolationmode none
attr recordingmode histogram
attr source "packetLength(merge(packetPushedOut, packetPulledOut))"
attr title "outgoing packet lengths"
attr unit b
bin	-inf	0
bin	0	0
bin	1	0
scalar TsnDumbbellNetwork.client1.bridging.directionReverser.reverser flowOutgoingPacketLengths:sum 0
attr interpolationmode none
attr recordingmode sum
attr source "packetLength(demuxFlow(merge(packetPushedOut, packetPulledOut)))"
attr title "flow specific outgoing packet lengths, sum"
attr unit b
statistic TsnDumbbellNetwork.client1.bridging.directionReverser.reverser flowOutgoingPacketLengths:histogram
field count 0
field mean -nan
field stddev nan
field min nan
field max nan
field sum 0
field sqrsum 0
attr interpolationmode none
attr recordingmode histogram
attr source "packetLength(demuxFlow(merge(packetPushedOut, packetPulledOut)))"
attr title "flow specific outgoing packet lengths"
attr unit b
bin	-inf	0
bin	0	0
bin	1	0
scalar TsnDumbbellNetwork.client1.bridging.directionReverser.reverser incomingPackets:count 0
attr recordingmode count
attr source "merge(packetPushedIn, packetPulledIn)"
attr title "incoming packets, count"
attr unit pk
scalar TsnDumbbellNetwork.client1.bridging.directionReverser.reverser incomingPacketLengths:sum 0
attr interpolationmode none
attr recordingmode sum
attr source "packetLength(merge(packetPushedIn, packetPulledIn))"
attr title "incoming packet lengths, sum"
attr unit b
statistic TsnDumbbellNetwork.client1.bridging.directionReverser.reverser incomingPacketLengths:histogram
field count 0
field mean -nan
field stddev nan
field min nan
field max nan
field sum 0
field sqrsum 0
attr interpolationmode none
attr recordingmode histogram
attr source "packetLength(merge(packetPushedIn, packetPulledIn))"
attr title "incoming packet lengths"
attr unit b
bin	-inf	0
bin	0	0
bin	1	0
scalar TsnDumbbellNetwork.client1.bridging.directionReverser.reverser flowIncomingPacketLengths:sum 0
attr interpolationmode none
attr recordingmode sum
attr source "packetLength(demuxFlow(merge(packetPushedIn, packetPulledIn)))"
attr title "flow specific incoming packet lengths, sum"
attr unit b
statistic TsnDumbbellNetwork.client1.bridging.directionReverser.reverser flowIncomingPacketLengths:histogram
field count 0
field mean -nan
field stddev nan
field min nan
field max nan
field sum 0
field sqrsum 0
attr interpolationmode none
attr recordingmode histogram
attr source "packetLength(demuxFlow(merge(packetPushedIn, packetPulledIn)))"
attr title "flow specific incoming packet lengths"
attr unit b
bin	-inf	0
bin	0	0
bin	1	0
scalar TsnDumbbellNetwork.client1.bridging.directionReverser.join packets:count 0
attr recordingmode count
attr source "merge(packetPushed, packetPulled)"
attr title "packets, count"
attr unit pk
scalar TsnDumbbellNetwork.client1.bridging.directionReverser.join packetLengths:sum 0
attr interpolationmode none
attr recordingmode sum
attr source "packetLength(merge(packetPushed, packetPulled))"
attr title "packet lengths, sum"
attr unit b
statistic TsnDumbbellNetwork.client1.bridging.directionReverser.join packetLengths:histogram
field count 0
field mean -nan
field stddev nan
field min nan
field max nan
field sum 0
field sqrsum 0
attr interpolationmode none
attr recordingmode histogram
attr source "packetLength(merge(packetPushed, packetPulled))"
attr title "packet lengths"
attr unit b
bin	-inf	0
bin	0	0
bin	1	0
scalar TsnDumbbellNetwork.client1.bridging.streamIdentifier.identifier outgoingPackets:count 1201
attr recordingmode count
attr source "merge(packetPushedOut, packetPulledOut)"
attr title "outgoing packets, count"
attr unit pk
scalar TsnDumbbellNetwork.client1.bridging.streamIdentifier.identifier outgoingPacketLengths:sum 6673024
attr interpolationmode none
attr recordingmode sum
attr source "packetLength(merge(packetPushedOut, packetPulledOut))"
attr title "outgoing packet lengths, sum"
attr unit b
statistic TsnDumbbellNetwork.client1.bridging.streamIdentifier.identifier outgoingPacketLengths:histogram
field count 1201
field mean 5556.2231473772
field stddev 1886.0105523292
field min 4224
field max 8224
field sum 6673024
field sqrsum 41345253376
attr interpolationmode none
attr recordingmode histogram
attr source "packetLength(merge(packetPushedOut, packetPulledOut))"
attr title "outgoing packet lengths"
attr unit b
bin	-inf	0
bin	3200	0
bin	3300	0
bin	3400	0
bin	3500	0
bin	3600	0
bin	3700	0
bin	3800	0
bin	3900	0
bin	4000	0
bin	4100	0
bin	4200	801
bin	4300	0
bin	4400	0
bin	4500	0
bin	4600	0
bin	4700	0
bin	4800	0
bin	4900	0
bin	5000	0
bin	5100	0
bin	5200	0
bin	5300	0
bin	5400	0
bin	5500	0
bin	5600	0
bin	5700	0
bin	5800	0
bin	5900	0
bin	6000	0
bin	6100	0
bin	6200	0
bin	6300	0
bin	6400	0
bin	6500	0
bin	6600	0
bin	6700	0
bin	6800	0
bin	6900	0
bin	7000	0
bin	7100	0
bin	7200	0
bin	7300	0
bin	7400	0
bin	7500	0
bin	7600	0
bin	7700	0
bin	7800	0
bin	7900	0
bin	8000	0
bin	8100	0
bin	8200	400
bin	8300	0
bin	8400	0
bin	8500	0
bin	8600	0
bin	8700	0
bin	8800	0
bin	8900	0
bin	9000	0
bin	9100	0
bin	9200	0
bin	9300	0
scalar TsnDumbbellNetwork.client1.bridging.streamIdentifier.identifier flowOutgoingPacketLengths:sum 0
attr interpolationmode none
attr recordingmode sum
attr source "packetLength(demuxFlow(merge(packetPushedOut, packetPulledOut)))"
attr title "flow specific outgoing packet lengths, sum"
attr unit b
statistic TsnDumbbellNetwork.client1.bridging.streamIdentifier.identifier flowOutgoingPacketLengths:histogram
field count 0
field mean -nan
field stddev nan
field min nan
field max nan
field sum 0
field sqrsum 0
attr interpolationmode none
attr recordingmode histogram
attr source "packetLength(demuxFlow(merge(packetPushedOut, packetPulledOut)))"
attr title "flow specific outgoing packet lengths"
attr unit b
bin	-inf	0
bin	0	0
bin	1	0
scalar TsnDumbbellNetwork.client1.bridging.streamIdentifier.identifier incomingPackets:count 1201
attr recordingmode count
attr source "merge(packetPushedIn, packetPulledIn)"
attr title "incoming packets, count"
attr unit pk
scalar TsnDumbbellNetwork.client1.bridging.streamIdentifier.identifier incomingPacketLengths:sum 6673024
attr interpolationmode none
attr recordingmode sum
attr source "packetLength(merge(packetPushedIn, packetPulledIn))"
attr title "incoming packet lengths, sum"
attr unit b
statistic TsnDumbbellNetwork.client1.bridging.streamIdentifier.identifier incomingPacketLengths:histogram
field count 1201
field mean 5556.2231473772
field stddev 1886.0105523292
field min 4224
field max 8224
field sum 6673024
field sqrsum 41345253376
attr interpolationmode none
attr recordingmode histogram
attr source "packetLength(merge(packetPushedIn, packetPulledIn))"
attr title "incoming packet lengths"
attr unit b
bin	-inf	0
bin	3200	0
bin	3300	0
bin	3400	0
bin	3500	0
bin	3600	0
bin	3700	0
bin	3800	0
bin	3900	0
bin	4000	0
bin	4100	0
bin	4200	801
bin	4300	0
bin	4400	0
bin	4500	0
bin	4600	0
bin	4700	0
bin	4800	0
bin	4900	0
bin	5000	0
bin	5100	0
bin	5200	0
bin	5300	0
bin	5400	0
bin	5500	0
bin	5600	0
bin	5700	0
bin	5800	0
bin	5900	0
bin	6000	0
bin	6100	0
bin	6200	0
bin	6300	0
bin	6400	0
bin	6500	0
bin	6600	0
bin	6700	0
bin	6800	0
bin	6900	0
bin	7000	0
bin	7100	0
bin	7200	0
bin	7300	0
bin	7400	0
bin	7500	0
bin	7600	0
bin	7700	0
bin	7800	0
bin	7900	0
bin	8000	0
bin	8100	0
bin	8200	400
bin	8300	0
bin	8400	0
bin	8500	0
bin	8600	0
bin	8700	0
bin	8800	0
bin	8900	0
bin	9000	0
bin	9100	0
bin	9200	0
bin	9300	0
scalar TsnDumbbellNetwork.client1.bridging.streamIdentifier.identifier flowIncomingPacketLengths:sum 0
attr interpolationmode none
attr recordingmode sum
attr source "packetLength(demuxFlow(merge(packetPushedIn, packetPulledIn)))"
attr title "flow specific incoming packet lengths, sum"
attr unit b
statistic TsnDumbbellNetwork.client1.bridging.streamIdentifier.identifier flowIncomingPacketLengths:histogram
field count 0
field mean -nan
field stddev nan
field min nan
field max nan
field sum 0
field sqrsum 0
attr interpolationmode none
attr recordingmode histogram
attr source "packetLength(demuxFlow(merge(packetPushedIn, packetPulledIn)))"
attr title "flow specific incoming packet lengths"
attr unit b
bin	-inf	0
bin	0	0
bin	1	0
scalar TsnDumbbellNetwork.client1.bridging.streamCoder.decoder outgoingPackets:count 0
attr recordingmode count
attr source "merge(packetPushedOut, packetPulledOut)"
attr title "outgoing packets, count"
attr unit pk
scalar TsnDumbbellNetwork.client1.bridging.streamCoder.decoder outgoingPacketLengths:sum 0
attr interpolationmode none
attr recordingmode sum
attr source "packetLength(merge(packetPushedOut, packetPulledOut))"
attr title "outgoing packet lengths, sum"
attr unit b
statistic TsnDumbbellNetwork.client1.bridging.streamCoder.decoder outgoingPacketLengths:histogram
field count 0
field mean -nan
field stddev nan
field min nan
field max nan
field sum 0
field sqrsum 0
attr interpolationmode none
attr recordingmode histogram
attr source "packetLength(merge(packetPushedOut, packetPulledOut))"
attr title "outgoing packet lengths"
attr unit b
bin	-inf	0
bin	0	0
bin	1	0
scalar TsnDumbbellNetwork.client1.bridging.streamCoder.decoder flowOutgoingPacketLengths:sum 0
attr interpolationmode none
attr recordingmode sum
attr source "packetLength(demuxFlow(merge(packetPushedOut, packetPulledOut)))"
attr title "flow specific outgoing packet lengths, sum"
attr unit b
statistic TsnDumbbellNetwork.client1.bridging.streamCoder.decoder flowOutgoingPacketLengths:histogram
field count 0
field mean -nan
field stddev nan
field min nan
field max nan
field sum 0
field sqrsum 0
attr interpolationmode none
attr recordingmode histogram
attr source "packetLength(demuxFlow(merge(packetPushedOut, packetPulledOut)))"
attr title "flow specific outgoing packet lengths"
attr unit b
bin	-inf	0
bin	0	0
bin	1	0
scalar TsnDumbbellNetwork.client1.bridging.streamCoder.decoder incomingPackets:count 0
attr recordingmode count
attr source "merge(packetPushedIn, packetPulledIn)"
attr title "incoming packets, count"
attr unit pk
scalar TsnDumbbellNetwork.client1.bridging.streamCoder.decoder incomingPacketLengths:sum 0
attr interpolationmode none
attr recordingmode sum
attr source "packetLength(merge(packetPushedIn, packetPulledIn))"
attr title "incoming packet lengths, sum"
attr unit b
statistic TsnDumbbellNetwork.client1.bridging.streamCoder.decoder incomingPacketLengths:histogram
field count 0
field mean -nan
field stddev nan
field min nan
field max nan
field sum 0
field sqrsum 0
attr interpolationmode none
attr recordingmode histogram
attr source "packetLength(merge(packetPushedIn, packetPulledIn))"
attr title "incoming packet lengths"
attr unit b
bin	-inf	0
bin	0	0
bin	1	0
scalar TsnDumbbellNetwork.client1.bridging.streamCoder.decoder flowIncomingPacketLengths:sum 0
attr interpolationmode none
attr recordingmode sum
attr source "packetLength(demuxFlow(merge(packetPushedIn, packetPulledIn)))"
attr title "flow specific incoming packet lengths, sum"
attr unit b
statistic TsnDumbbellNetwork.client1.bridging.streamCoder.decoder flowIncomingPacketLengths:histogram
field count 0
field mean -nan
field stddev nan
field min nan
field max nan
field sum 0
field sqrsum 0
attr interpolationmode none
attr recordingmode histogram
attr source "packetLength(demuxFlow(merge(packetPushedIn, packetPulledIn)))"
attr title "flow specific incoming packet lengths"
attr unit b
bin	-inf	0
bin	0	0
bin	1	0
scalar TsnDumbbellNetwork.client1.bridging.streamCoder.encoder outgoingPackets:count 1201
attr recordingmode count
attr source "merge(packetPushedOut, packetPulledOut)"
attr title "outgoing packets, count"
attr unit pk
scalar TsnDumbbellNetwork.client1.bridging.streamCoder.encoder outgoingPacketLengths:sum 6673024
attr interpolationmode none
attr recordingmode sum
attr source "packetLength(merge(packetPushedOut, packetPulledOut))"
attr title "outgoing packet lengths, sum"
attr unit b
statistic TsnDumbbellNetwork.client1.bridging.streamCoder.encoder outgoingPacketLengths:histogram
field count 1201
field mean 5556.2231473772
field stddev 1886.0105523292
field min 4224
field max 8224
field sum 6673024
field sqrsum 41345253376
attr interpolationmode none
attr recordingmode histogram
attr source "packetLength(merge(packetPushedOut, packetPulledOut))"
attr title "outgoing packet lengths"
attr unit b
bin	-inf	0
bin	3200	0
bin	3300	0
bin	3400	0
bin	3500	0
bin	3600	0
bin	3700	0
bin	3800	0
bin	3900	0
bin	4000	0
bin	4100	0
bin	4200	801
bin	4300	0
bin	4400	0
bin	4500	0
bin	4600	0
bin	4700	0
bin	4800	0
bin	4900	0
bin	5000	0
bin	5100	0
bin	5200	0
bin	5300	0
bin	5400	0
bin	5500	0
bin	5600	0
bin	5700	0
bin	5800	0
bin	5900	0
bin	6000	0
bin	6100	0
bin	6200	0
bin	6300	0
bin	6400	0
bin	6500	0
bin	6600	0
bin	6700	0
bin	6800	0
bin	6900	0
bin	7000	0
bin	7100	0
bin	7200	0
bin	7300	0
bin	7400	0
bin	7500	0
bin	7600	0
bin	7700	0
bin	7800	0
bin	7900	0
bin	8000	0
bin	8100	0
bin	8200	400
bin	8300	0
bin	8400	0
bin	8500	0
bin	8600	0
bin	8700	0
bin	8800	0
bin	8900	0
bin	9000	0
bin	9100	0
bin	9200	0
bin	9300	0
scalar TsnDumbbellNetwork.client1.bridging.streamCoder.encoder flowOutgoingPacketLengths:sum 0
attr interpolationmode none
attr recordingmode sum
attr source "packetLength(demuxFlow(merge(packetPushedOut, packetPulledOut)))"
attr title "flow specific outgoing packet lengths, sum"
attr unit b
statistic TsnDumbbellNetwork.client1.bridging.streamCoder.encoder flowOutgoingPacketLengths:histogram
field count 0
field mean -nan
field stddev nan
field min nan
field max nan
field sum 0
field sqrsum 0
attr interpolationmode none
attr recordingmode histogram
attr source "packetLength(demuxFlow(merge(packetPushedOut, packetPulledOut)))"
attr title "flow specific outgoing packet lengths"
attr unit b
bin	-inf	0
bin	0	0
bin	1	0
scalar TsnDumbbellNetwork.client1.bridging.streamCoder.encoder incomingPackets:count 1201
attr recordingmode count
attr source "merge(packetPushedIn, packetPulledIn)"
attr title "incoming packets, count"
attr unit pk
scalar TsnDumbbellNetwork.client1.bridging.streamCoder.encoder incomingPacketLengths:sum 6673024
attr interpolationmode none
attr recordingmode sum
attr source "packetLength(merge(packetPushedIn, packetPulledIn))"
attr title "incoming packet lengths, sum"
attr unit b
statistic TsnDumbbellNetwork.client1.bridging.streamCoder.encoder incomingPacketLengths:histogram
field count 1201
field mean 5556.2231473772
field stddev 1886.0105523292
field min 4224
field max 8224
field sum 6673024
field sqrsum 41345253376
attr interpolationmode none
attr recordingmode histogram
attr source "packetLength(merge(packetPushedIn, packetPulledIn))"
attr title "incoming packet lengths"
attr unit b
bin	-inf	0
bin	3200	0
bin	3300	0
bin	3400	0
bin	3500	0
bin	3600	0
bin	3700	0
bin	3800	0
bin	3900	0
bin	4000	0
bin	4100	0
bin	4200	801
bin	4300	0
bin	4400	0
bin	4500	0
bin	4600	0
bin	4700	0
bin	4800	0
bin	4900	0
bin	5000	0
bin	5100	0
bin	5200	0
bin	5300	0
bin	5400	0
bin	5500	0
bin	5600	0
bin	5700	0
bin	5800	0
bin	5900	0
bin	6000	0
bin	6100	0
bin	6200	0
bin	6300	0
bin	6400	0
bin	6500	0
bin	6600	0
bin	6700	0
bin	6800	0
bin	6900	0
bin	7000	0
bin	7100	0
bin	7200	0
bin	7300	0
bin	7400	0
bin	7500	0
bin	7600	0
bin	7700	0
bin	7800	0
bin	7900	0
bin	8000	0
bin	8100	0
bin	8200	400
bin	8300	0
bin	8400	0
bin	8500	0
bin	8600	0
bin	8700	0
bin	8800	0
bin	8900	0
bin	9000	0
bin	9100	0
bin	9200	0
bin	9300	0
scalar TsnDumbbellNetwork.client1.bridging.streamCoder.encoder flowIncomingPacketLengths:sum 0
attr interpolationmode none
attr recordingmode sum
attr source "packetLength(demuxFlow(merge(packetPushedIn, packetPulledIn)))"
attr title "flow specific incoming packet lengths, sum"
attr unit b
statistic TsnDumbbellNetwork.client1.bridging.streamCoder.encoder flowIncomingPacketLengths:histogram
field count 0
field mean -nan
field stddev nan
field min nan
field max nan
field sum 0
field sqrsum 0
attr interpolationmode none
attr recordingmode histogram
attr source "packetLength(demuxFlow(merge(packetPushedIn, packetPulledIn)))"
attr title "flow specific incoming packet lengths"
attr unit b
bin	-inf	0
bin	0	0
bin	1	0
scalar TsnDumbbellNetwork.client1.ethernet.macHeaderInserter outgoingPackets:count 1201
attr recordingmode count
attr source "merge(packetPushedOut, packetPulledOut)"
attr title "outgoing packets, count"
attr unit pk
scalar TsnDumbbellNetwork.client1.ethernet.macHeaderInserter outgoingPacketLengths:sum 6845968
attr interpolationmode none
attr recordingmode sum
attr source "packetLength(merge(packetPushedOut, packetPulledOut))"
attr title "outgoing packet lengths, sum"
attr unit b
statistic TsnDumbbellNetwork.client1.ethernet.macHeaderInserter outgoingPacketLengths:histogram
field count 1201
field mean 5700.2231473772
field stddev 1886.0105523292
field min 4368
field max 8368
field sum 6845968
field sqrsum 43291988224
attr interpolationmode none
attr recordingmode histogram
attr source "packetLength(merge(packetPushedOut, packetPulledOut))"
attr title "outgoing packet lengths"
attr unit b
bin	-inf	0
bin	3300	0
bin	3400	0
bin	3500	0
bin	3600	0
bin	3700	0
bin	3800	0
bin	3900	0
bin	4000	0
bin	4100	0
bin	4200	0
bin	4300	801
bin	4400	0
bin	4500	0
bin	4600	0
bin	4700	0
bin	4800	0
bin	4900	0
bin	5000	0
bin	5100	0
bin	5200	0
bin	5300	0
bin	5400	0
bin	5500	0
bin	5600	0
bin	5700	0
bin	5800	0
bin	5900	0
bin	6000	0
bin	6100	0
bin	6200	0
bin	6300	0
bin	6400	0
bin	6500	0
bin	6600	0
bin	6700	0
bin	6800	0
bin	6900	0
bin	7000	0
bin	7100	0
bin	7200	0
bin	7300	0
bin	7400	0
bin	7500	0
bin	7600	0
bin	7700	0
bin	7800	0
bin	7900	0
bin	8000	0
bin	8100	0
bin	8200	0
bin	8300	400
bin	8400	0
bin	8500	0
bin	8600	0
bin	8700	0
bin	8800	0
bin	8900	0
bin	9000	0
bin	9100	0
bin	9200	0
bin	9300	0
bin	9400	0
scalar TsnDumbbellNetwork.client1.ethernet.macHeaderInserter flowOutgoingPacketLengths:sum 0
attr interpolationmode none
attr recordingmode sum
attr source "packetLength(demuxFlow(merge(packetPushedOut, packetPulledOut)))"
attr title "flow specific outgoing packet lengths, sum"
attr unit b
statistic TsnDumbbellNetwork.client1.ethernet.macHeaderInserter flowOutgoingPacketLengths:histogram
field count 0
field mean -nan
field stddev nan
field min nan
field max nan
field sum 0
field sqrsum 0
attr interpolationmode none
attr recordingmode histogram
attr source "packetLength(demuxFlow(merge(packetPushedOut, packetPulledOut)))"
attr title "flow specific outgoing packet lengths"
attr unit b
bin	-inf	0
bin	0	0
bin	1	0
scalar TsnDumbbellNetwork.client1.ethernet.macHeaderInserter incomingPackets:count 1201
attr recordingmode count
attr source "merge(packetPushedIn, packetPulledIn)"
attr title "incoming packets, count"
attr unit pk
scalar TsnDumbbellNetwork.client1.ethernet.macHeaderInserter incomingPacketLengths:sum 6711456
attr interpolationmode none
attr recordingmode sum
attr source "packetLength(merge(packetPushedIn, packetPulledIn))"
attr title "incoming packet lengths, sum"
attr unit b
statistic TsnDumbbellNetwork.client1.ethernet.macHeaderInserter incomingPacketLengths:histogram
field count 1201
field mean 5588.2231473772
field stddev 1886.0105523292
field min 4256
field max 8256
field sum 6711456
field sqrsum 41773556736
attr interpolationmode none
attr recordingmode histogram
attr source "packetLength(merge(packetPushedIn, packetPulledIn))"
attr title "incoming packet lengths"
attr unit b
bin	-inf	0
bin	3200	0
bin	3300	0
bin	3400	0
bin	3500	0
bin	3600	0
bin	3700	0
bin	3800	0
bin	3900	0
bin	4000	0
bin	4100	0
bin	4200	801
bin	4300	0
bin	4400	0
bin	4500	0
bin	4600	0
bin	4700	0
bin	4800	0
bin	4900	0
bin	5000	0
bin	5100	0
bin	5200	0
bin	5300	0
bin	5400	0
bin	5500	0
bin	5600	0
bin	5700	0
bin	5800	0
bin	5900	0
bin	6000	0
bin	6100	0
bin	6200	0
bin	6300	0
bin	6400	0
bin	6500	0
bin	6600	0
bin	6700	0
bin	6800	0
bin	6900	0
bin	7000	0
bin	7100	0
bin	7200	0
bin	7300	0
bin	7400	0
bin	7500	0
bin	7600	0
bin	7700	0
bin	7800	0
bin	7900	0
bin	8000	0
bin	8100	0
bin	8200	400
bin	8300	0
bin	8400	0
bin	8500	0
bin	8600	0
bin	8700	0
bin	8800	0
bin	8900	0
bin	9000	0
bin	9100	0
bin	9200	0
bin	9300	0
scalar TsnDumbbellNetwork.client1.ethernet.macHeaderInserter flowIncomingPacketLengths:sum 0
attr interpolationmode none
attr recordingmode sum
attr source "packetLength(demuxFlow(merge(packetPushedIn, packetPulledIn)))"
attr title "flow specific incoming packet lengths, sum"
attr unit b
statistic TsnDumbbellNetwork.client1.ethernet.macHeaderInserter flowIncomingPacketLengths:histogram
field count 0
field mean -nan
field stddev nan
field min nan
field max nan
field sum 0
field sqrsum 0
attr interpolationmode none
attr recordingmode histogram
attr source "packetLength(demuxFlow(merge(packetPushedIn, packetPulledIn)))"
attr title "flow specific incoming packet lengths"
attr unit b
bin	-inf	0
bin	0	0
bin	1	0
scalar TsnDumbbellNetwork.client1.ethernet.paddingInserter outgoingPackets:count 1201
attr recordingmode count
attr source "merge(packetPushedOut, packetPulledOut)"
attr title "outgoing packets, count"
attr unit pk
scalar TsnDumbbellNetwork.client1.ethernet.paddingInserter outgoingPacketLengths:sum 6845968
attr interpolationmode none
attr recordingmode sum
attr source "packetLength(merge(packetPushedOut, packetPulledOut))"
attr title "outgoing packet lengths, sum"
attr unit b
statistic TsnDumbbellNetwork.client1.ethernet.paddingInserter outgoingPacketLengths:histogram
field count 1201
field mean 5700.2231473772
field stddev 1886.0105523292
field min 4368
field max 8368
field sum 6845968
field sqrsum 43291988224
attr interpolationmode none
attr recordingmode histogram
attr source "packetLength(merge(packetPushedOut, packetPulledOut))"
attr title "outgoing packet lengths"
attr unit b
bin	-inf	0
bin	3300	0
bin	3400	0
bin	3500	0
bin	3600	0
bin	3700	0
bin	3800	0
bin	3900	0
bin	4000	0
bin	4100	0
bin	4200	0
bin	4300	801
bin	4400	0
bin	4500	0
bin	4600	0
bin	4700	0
bin	4800	0
bin	4900	0
bin	5000	0
bin	5100	0
bin	5200	0
bin	5300	0
bin	5400	0
bin	5500	0
bin	5600	0
bin	5700	0
bin	5800	0
bin	5900	0
bin	6000	0
bin	6100	0
bin	6200	0
bin	6300	0
bin	6400	0
bin	6500	0
bin	6600	0
bin	6700	0
bin	6800	0
bin	6900	0
bin	7000	0
bin	7100	0
bin	7200	0
bin	7300	0
bin	7400	0
bin	7500	0
bin	7600	0
bin	7700	0
bin	7800	0
bin	7900	0
bin	8000	0
bin	8100	0
bin	8200	0
bin	8300	400
bin	8400	0
bin	8500	0
bin	8600	0
bin	8700	0
bin	8800	0
bin	8900	0
bin	9000	0
bin	9100	0
bin	9200	0
bin	9300	0
bin	9400	0
scalar TsnDumbbellNetwork.client1.ethernet.paddingInserter flowOutgoingPacketLengths:sum 0
attr interpolationmode none
attr recordingmode sum
attr source "packetLength(demuxFlow(merge(packetPushedOut, packetPulledOut)))"
attr title "flow specific outgoing packet lengths, sum"
attr unit b
statistic TsnDumbbellNetwork.client1.ethernet.paddingInserter flowOutgoingPacketLengths:histogram
field count 0
field mean -nan
field stddev nan
field min nan
field max nan
field sum 0
field sqrsum 0
attr interpolationmode none
attr recordingmode histogram
attr source "packetLength(demuxFlow(merge(packetPushedOut, packetPulledOut)))"
attr title "flow specific outgoing packet lengths"
attr unit b
bin	-inf	0
bin	0	0
bin	1	0
scalar TsnDumbbellNetwork.client1.ethernet.paddingInserter incomingPackets:count 1201
attr recordingmode count
attr source "merge(packetPushedIn, packetPulledIn)"
attr title "incoming packets, count"
attr unit pk
scalar TsnDumbbellNetwork.client1.ethernet.paddingInserter incomingPacketLengths:sum 6845968
attr interpolationmode none
attr recordingmode sum
attr source "packetLength(merge(packetPushedIn, packetPulledIn))"
attr title "incoming packet lengths, sum"
attr unit b
statistic TsnDumbbellNetwork.client1.ethernet.paddingInserter incomingPacketLengths:histogram
field count 1201
field mean 5700.2231473772
field stddev 1886.0105523292
field min 4368
field max 8368
field sum 6845968
field sqrsum 43291988224
attr interpolationmode none
attr recordingmode histogram
attr source "packetLength(merge(packetPushedIn, packetPulledIn))"
attr title "incoming packet lengths"
attr unit b
bin	-inf	0
bin	3300	0
bin	3400	0
bin	3500	0
bin	3600	0
bin	3700	0
bin	3800	0
bin	3900	0
bin	4000	0
bin	4100	0
bin	4200	0
bin	4300	801
bin	4400	0
bin	4500	0
bin	4600	0
bin	4700	0
bin	4800	0
bin	4900	0
bin	5000	0
bin	5100	0
bin	5200	0
bin	5300	0
bin	5400	0
bin	5500	0
bin	5600	0
bin	5700	0
bin	5800	0
bin	5900	0
bin	6000	0
bin	6100	0
bin	6200	0
bin	6300	0
bin	6400	0
bin	6500	0
bin	6600	0
bin	6700	0
bin	6800	0
bin	6900	0
bin	7000	0
bin	7100	0
bin	7200	0
bin	7300	0
bin	7400	0
bin	7500	0
bin	7600	0
bin	7700	0
bin	7800	0
bin	7900	0
bin	8000	0
bin	8100	0
bin	8200	0
bin	8300	400
bin	8400	0
bin	8500	0
bin	8600	0
bin	8700	0
bin	8800	0
bin	8900	0
bin	9000	0
bin	9100	0
bin	9200	0
bin	9300	0
bin	9400	0
scalar TsnDumbbellNetwork.client1.ethernet.paddingInserter flowIncomingPacketLengths:sum 0
attr interpolationmode none
attr recordingmode sum
attr source "packetLength(demuxFlow(merge(packetPushedIn, packetPulledIn)))"
attr title "flow specific incoming packet lengths, sum"
attr unit b
statistic TsnDumbbellNetwork.client1.ethernet.paddingInserter flowIncomingPacketLengths:histogram
field count 0
field mean -nan
field stddev nan
field min nan
field max nan
field sum 0
field sqrsum 0
attr interpolationmode none
attr recordingmode histogram
attr source "packetLength(demuxFlow(merge(packetPushedIn, packetPulledIn)))"
attr title "flow specific incoming packet lengths"
attr unit b
bin	-inf	0
bin	0	0
bin	1	0
scalar TsnDumbbellNetwork.client1.ethernet.fcsInserter outgoingPackets:count 1201
attr recordingmode count
attr source "merge(packetPushedOut, packetPulledOut)"
attr title "outgoing packets, count"
attr unit pk
scalar TsnDumbbellNetwork.client1.ethernet.fcsInserter outgoingPacketLengths:sum 6884400
attr interpolationmode none
attr recordingmode sum
attr source "packetLength(merge(packetPushedOut, packetPulledOut))"
attr title "outgoing packet lengths, sum"
attr unit b
statistic TsnDumbbellNetwork.client1.ethernet.fcsInserter outgoingPacketLengths:histogram
field count 1201
field mean 5732.2231473772
field stddev 1886.0105523292
field min 4400
field max 8400
field sum 6884400
field sqrsum 43731360000
attr interpolationmode none
attr recordingmode histogram
attr source "packetLength(merge(packetPushedOut, packetPulledOut))"
attr title "outgoing packet lengths"
attr unit b
bin	-inf	0
bin	3400	0
bin	3500	0
bin	3600	0
bin	3700	0
bin	3800	0
bin	3900	0
bin	4000	0
bin	4100	0
bin	4200	0
bin	4300	0
bin	4400	801
bin	4500	0
bin	4600	0
bin	4700	0
bin	4800	0
bin	4900	0
bin	5000	0
bin	5100	0
bin	5200	0
bin	5300	0
bin	5400	0
bin	5500	0
bin	5600	0
bin	5700	0
bin	5800	0
bin	5900	0
bin	6000	0
bin	6100	0
bin	6200	0
bin	6300	0
bin	6400	0
bin	6500	0
bin	6600	0
bin	6700	0
bin	6800	0
bin	6900	0
bin	7000	0
bin	7100	0
bin	7200	0
bin	7300	0
bin	7400	0
bin	7500	0
bin	7600	0
bin	7700	0
bin	7800	0
bin	7900	0
bin	8000	0
bin	8100	0
bin	8200	0
bin	8300	0
bin	8400	400
bin	8500	0
bin	8600	0
bin	8700	0
bin	8800	0
bin	8900	0
bin	9000	0
bin	9100	0
bin	9200	0
bin	9300	0
bin	9400	0
scalar TsnDumbbellNetwork.client1.ethernet.fcsInserter flowOutgoingPacketLengths:sum 0
attr interpolationmode none
attr recordingmode sum
attr source "packetLength(demuxFlow(merge(packetPushedOut, packetPulledOut)))"
attr title "flow specific outgoing packet lengths, sum"
attr unit b
statistic TsnDumbbellNetwork.client1.ethernet.fcsInserter flowOutgoingPacketLengths:histogram
field count 0
field mean -nan
field stddev nan
field min nan
field max nan
field sum 0
field sqrsum 0
attr interpolationmode none
attr recordingmode histogram
attr source "packetLength(demuxFlow(merge(packetPushedOut, packetPulledOut)))"
attr title "flow specific outgoing packet lengths"
attr unit b
bin	-inf	0
bin	0	0
bin	1	0
scalar TsnDumbbellNetwork.client1.ethernet.fcsInserter incomingPackets:count 1201
attr recordingmode count
attr source "merge(packetPushedIn, packetPulledIn)"
attr title "incoming packets, count"
attr unit pk
scalar TsnDumbbellNetwork.client1.ethernet.fcsInserter incomingPacketLengths:sum 6845968
attr interpolationmode none
attr recordingmode sum
attr source "packetLength(merge(packetPushedIn, packetPulledIn))"
attr title "incoming packet lengths, sum"
attr unit b
statistic TsnDumbbellNetwork.client1.ethernet.fcsInserter incomingPacketLengths:histogram
field count 1201
field mean 5700.2231473772
field stddev 1886.0105523292
field min 4368
field max 8368
field sum 6845968
field sqrsum 43291988224
attr interpolationmode none
attr recordingmode histogram
attr source "packetLength(merge(packetPushedIn, packetPulledIn))"
attr title "incoming packet lengths"
attr unit b
bin	-inf	0
bin	3300	0
bin	3400	0
bin	3500	0
bin	3600	0
bin	3700	0
bin	3800	0
bin	3900	0
bin	4000	0
bin	4100	0
bin	4200	0
bin	4300	801
bin	4400	0
bin	4500	0
bin	4600	0
bin	4700	0
bin	4800	0
bin	4900	0
bin	5000	0
bin	5100	0
bin	5200	0
bin	5300	0
bin	5400	0
bin	5500	0
bin	5600	0
bin	5700	0
bin	5800	0
bin	5900	0
bin	6000	0
bin	6100	0
bin	6200	0
bin	6300	0
bin	6400	0
bin	6500	0
bin	6600	0
bin	6700	0
bin	6800	0
bin	6900	0
bin	7000	0
bin	7100	0
bin	7200	0
bin	7300	0
bin	7400	0
bin	7500	0
bin	7600	0
bin	7700	0
bin	7800	0
bin	7900	0
bin	8000	0
bin	8100	0
bin	8200	0
bin	8300	400
bin	8400	0
bin	8500	0
bin	8600	0
bin	8700	0
bin	8800	0
bin	8900	0
bin	9000	0
bin	9100	0
bin	9200	0
bin	9300	0
bin	9400	0
scalar TsnDumbbellNetwork.client1.ethernet.fcsInserter flowIncomingPacketLengths:sum 0
attr interpolationmode none
attr recordingmode sum
attr source "packetLength(demuxFlow(merge(packetPushedIn, packetPulledIn)))"
attr title "flow specific incoming packet lengths, sum"
attr unit b
statistic TsnDumbbellNetwork.client1.ethernet.fcsInserter flowIncomingPacketLengths:histogram
field count 0
field mean -nan
field stddev nan
field min nan
field max nan
field sum 0
field sqrsum 0
attr interpolationmode none
attr recordingmode histogram
attr source "packetLength(demuxFlow(merge(packetPushedIn, packetPulledIn)))"
attr title "flow specific incoming packet lengths"
attr unit b
bin	-inf	0
bin	0	0
bin	1	0
scalar TsnDumbbellNetwork.client1.ethernet.macHeaderChecker outgoingPackets:count 0
attr recordingmode count
attr source "merge(packetPushedOut, packetPulledOut)"
attr title "outgoing packets, count"
attr unit pk
scalar TsnDumbbellNetwork.client1.ethernet.macHeaderChecker outgoingPacketLengths:sum 0
attr interpolationmode none
attr recordingmode sum
attr source "packetLength(merge(packetPushedOut, packetPulledOut))"
attr title "outgoing packet lengths, sum"
attr unit b
statistic TsnDumbbellNetwork.client1.ethernet.macHeaderChecker outgoingPacketLengths:histogram
field count 0
field mean -nan
field stddev nan
field min nan
field max nan
field sum 0
field sqrsum 0
attr interpolationmode none
attr recordingmode histogram
attr source "packetLength(merge(packetPushedOut, packetPulledOut))"
attr title "outgoing packet lengths"
attr unit b
bin	-inf	0
bin	0	0
bin	1	0
scalar TsnDumbbellNetwork.client1.ethernet.macHeaderChecker flowOutgoingPacketLengths:sum 0
attr interpolationmode none
attr recordingmode sum
attr source "packetLength(demuxFlow(merge(packetPushedOut, packetPulledOut)))"
attr title "flow specific outgoing packet lengths, sum"
attr unit b
statistic TsnDumbbellNetwork.client1.ethernet.macHeaderChecker flowOutgoingPacketLengths:histogram
field count 0
field mean -nan
field stddev nan
field min nan
field max nan
field sum 0
field sqrsum 0
attr interpolationmode none
attr recordingmode histogram
attr source "packetLength(demuxFlow(merge(packetPushedOut, packetPulledOut)))"
attr title "flow specific outgoing packet lengths"
attr unit b
bin	-inf	0
bin	0	0
bin	1	0
scalar TsnDumbbellNetwork.client1.ethernet.macHeaderChecker incomingPackets:count 0
attr recordingmode count
attr source "merge(packetPushedIn, packetPulledIn)"
attr title "incoming packets, count"
attr unit pk
scalar TsnDumbbellNetwork.client1.ethernet.macHeaderChecker incomingPacketLengths:sum 0
attr interpolationmode none
attr recordingmode sum
attr source "packetLength(merge(packetPushedIn, packetPulledIn))"
attr title "incoming packet lengths, sum"
attr unit b
statistic TsnDumbbellNetwork.client1.ethernet.macHeaderChecker incomingPacketLengths:histogram
field count 0
field mean -nan
field stddev nan
field min nan
field max nan
field sum 0
field sqrsum 0
attr interpolationmode none
attr recordingmode histogram
attr source "packetLength(merge(packetPushedIn, packetPulledIn))"
attr title "incoming packet lengths"
attr unit b
bin	-inf	0
bin	0	0
bin	1	0
scalar TsnDumbbellNetwork.client1.ethernet.macHeaderChecker flowIncomingPacketLengths:sum 0
attr interpolationmode none
attr recordingmode sum
attr source "packetLength(demuxFlow(merge(packetPushedIn, packetPulledIn)))"
attr title "flow specific incoming packet lengths, sum"
attr unit b
statistic TsnDumbbellNetwork.client1.ethernet.macHeaderChecker flowIncomingPacketLengths:histogram
field count 0
field mean -nan
field stddev nan
field min nan
field max nan
field sum 0
field sqrsum 0
attr interpolationmode none
attr recordingmode histogram
attr source "packetLength(demuxFlow(merge(packetPushedIn, packetPulledIn)))"
attr title "flow specific incoming packet lengths"
attr unit b
bin	-inf	0
bin	0	0
bin	1	0
scalar TsnDumbbellNetwork.client1.ethernet.macHeaderChecker droppedPackets:count 0
attr recordingmode count
attr source packetDropped
attr title "dropped packets, count"
attr unit pk
scalar TsnDumbbellNetwork.client1.ethernet.macHeaderChecker droppedPacketLengths:sum 0
attr interpolationmode none
attr recordingmode sum
attr source packetLength(packetDropped)
attr title "dropped packet lengths, sum"
attr unit b
statistic TsnDumbbellNetwork.client1.ethernet.macHeaderChecker droppedPacketLengths:histogram
field count 0
field mean -nan
field stddev nan
field min nan
field max nan
field sum 0
field sqrsum 0
attr interpolationmode none
attr recordingmode histogram
attr source packetLength(packetDropped)
attr title "dropped packet lengths"
attr unit b
bin	-inf	0
bin	0	0
bin	1	0
scalar TsnDumbbellNetwork.client1.ethernet.macHeaderChecker flowDroppedPacketLengths:sum 0
attr interpolationmode none
attr recordingmode sum
attr source packetLength(demuxFlow(packetDropped))
attr title "flow specific dropped packet lengths, sum"
attr unit b
statistic TsnDumbbellNetwork.client1.ethernet.macHeaderChecker flowDroppedPacketLengths:histogram
field count 0
field mean -nan
field stddev nan
field min nan
field max nan
field sum 0
field sqrsum 0
attr interpolationmode none
attr recordingmode histogram
attr source packetLength(demuxFlow(packetDropped))
attr title "flow specific dropped packet lengths"
attr unit b
bin	-inf	0
bin	0	0
bin	1	0
scalar TsnDumbbellNetwork.client1.ethernet.fcsChecker outgoingPackets:count 0
attr recordingmode count
attr source "merge(packetPushedOut, packetPulledOut)"
attr title "outgoing packets, count"
attr unit pk
scalar TsnDumbbellNetwork.client1.ethernet.fcsChecker outgoingPacketLengths:sum 0
attr interpolationmode none
attr recordingmode sum
attr source "packetLength(merge(packetPushedOut, packetPulledOut))"
attr title "outgoing packet lengths, sum"
attr unit b
statistic TsnDumbbellNetwork.client1.ethernet.fcsChecker outgoingPacketLengths:histogram
field count 0
field mean -nan
field stddev nan
field min nan
field max nan
field sum 0
field sqrsum 0
attr interpolationmode none
attr recordingmode histogram
attr source "packetLength(merge(packetPushedOut, packetPulledOut))"
attr title "outgoing packet lengths"
attr unit b
bin	-inf	0
bin	0	0
bin	1	0
scalar TsnDumbbellNetwork.client1.ethernet.fcsChecker flowOutgoingPacketLengths:sum 0
attr interpolationmode none
attr recordingmode sum
attr source "packetLength(demuxFlow(merge(packetPushedOut, packetPulledOut)))"
attr title "flow specific outgoing packet lengths, sum"
attr unit b
statistic TsnDumbbellNetwork.client1.ethernet.fcsChecker flowOutgoingPacketLengths:histogram
field count 0
field mean -nan
field stddev nan
field min nan
field max nan
field sum 0
field sqrsum 0
attr interpolationmode none
attr recordingmode histogram
attr source "packetLength(demuxFlow(merge(packetPushedOut, packetPulledOut)))"
attr title "flow specific outgoing packet lengths"
attr unit b
bin	-inf	0
bin	0	0
bin	1	0
scalar TsnDumbbellNetwork.client1.ethernet.fcsChecker incomingPackets:count 0
attr recordingmode count
attr source "merge(packetPushedIn, packetPulledIn)"
attr title "incoming packets, count"
attr unit pk
scalar TsnDumbbellNetwork.client1.ethernet.fcsChecker incomingPacketLengths:sum 0
attr interpolationmode none
attr recordingmode sum
attr source "packetLength(merge(packetPushedIn, packetPulledIn))"
attr title "incoming packet lengths, sum"
attr unit b
statistic TsnDumbbellNetwork.client1.ethernet.fcsChecker incomingPacketLengths:histogram
field count 0
field mean -nan
field stddev nan
field min nan
field max nan
field sum 0
field sqrsum 0
attr interpolationmode none
attr recordingmode histogram
attr source "packetLength(merge(packetPushedIn, packetPulledIn))"
attr title "incoming packet lengths"
attr unit b
bin	-inf	0
bin	0	0
bin	1	0
scalar TsnDumbbellNetwork.client1.ethernet.fcsChecker flowIncomingPacketLengths:sum 0
attr interpolationmode none
attr recordingmode sum
attr source "packetLength(demuxFlow(merge(packetPushedIn, packetPulledIn)))"
attr title "flow specific incoming packet lengths, sum"
attr unit b
statistic TsnDumbbellNetwork.client1.ethernet.fcsChecker flowIncomingPacketLengths:histogram
field count 0
field mean -nan
field stddev nan
field min nan
field max nan
field sum 0
field sqrsum 0
attr interpolationmode none
attr recordingmode histogram
attr source "packetLength(demuxFlow(merge(packetPushedIn, packetPulledIn)))"
attr title "flow specific incoming packet lengths"
attr unit b
bin	-inf	0
bin	0	0
bin	1	0
scalar TsnDumbbellNetwork.client1.ethernet.fcsChecker droppedPackets:count 0
attr recordingmode count
attr source packetDropped
attr title "dropped packets, count"
attr unit pk
scalar TsnDumbbellNetwork.client1.ethernet.fcsChecker droppedPacketLengths:sum 0
attr interpolationmode none
attr recordingmode sum
attr source packetLength(packetDropped)
attr title "dropped packet lengths, sum"
attr unit b
statistic TsnDumbbellNetwork.client1.ethernet.fcsChecker droppedPacketLengths:histogram
field count 0
field mean -nan
field stddev nan
field min nan
field max nan
field sum 0
field sqrsum 0
attr interpolationmode none
attr recordingmode histogram
attr source packetLength(packetDropped)
attr title "dropped packet lengths"
attr unit b
bin	-inf	0
bin	0	0
bin	1	0
scalar TsnDumbbellNetwork.client1.ethernet.fcsChecker flowDroppedPacketLengths:sum 0
attr interpolationmode none
attr recordingmode sum
attr source packetLength(demuxFlow(packetDropped))
attr title "flow specific dropped packet lengths, sum"
attr unit b
statistic TsnDumbbellNetwork.client1.ethernet.fcsChecker flowDroppedPacketLengths:histogram
field count 0
field mean -nan
field stddev nan
field min nan
field max nan
field sum 0
field sqrsum 0
attr interpolationmode none
attr recordingmode histogram
attr source packetLength(demuxFlow(packetDropped))
attr title "flow specific dropped packet lengths"
attr unit b
bin	-inf	0
bin	0	0
bin	1	0
scalar TsnDumbbellNetwork.client1.ieee8021q.qTagHeaderInserter outgoingPackets:count 1201
attr recordingmode count
attr source "merge(packetPushedOut, packetPulledOut)"
attr title "outgoing packets, count"
attr unit pk
scalar TsnDumbbellNetwork.client1.ieee8021q.qTagHeaderInserter outgoingPacketLengths:sum 6711456
attr interpolationmode none
attr recordingmode sum
attr source "packetLength(merge(packetPushedOut, packetPulledOut))"
attr title "outgoing packet lengths, sum"
attr unit b
statistic TsnDumbbellNetwork.client1.ieee8021q.qTagHeaderInserter outgoingPacketLengths:histogram
field count 1201
field mean 5588.2231473772
field stddev 1886.0105523292
field min 4256
field max 8256
field sum 6711456
field sqrsum 41773556736
attr interpolationmode none
attr recordingmode histogram
attr source "packetLength(merge(packetPushedOut, packetPulledOut))"
attr title "outgoing packet lengths"
attr unit b
bin	-inf	0
bin	3200	0
bin	3300	0
bin	3400	0
bin	3500	0
bin	3600	0
bin	3700	0
bin	3800	0
bin	3900	0
bin	4000	0
bin	4100	0
bin	4200	801
bin	4300	0
bin	4400	0
bin	4500	0
bin	4600	0
bin	4700	0
bin	4800	0
bin	4900	0
bin	5000	0
bin	5100	0
bin	5200	0
bin	5300	0
bin	5400	0
bin	5500	0
bin	5600	0
bin	5700	0
bin	5800	0
bin	5900	0
bin	6000	0
bin	6100	0
bin	6200	0
bin	6300	0
bin	6400	0
bin	6500	0
bin	6600	0
bin	6700	0
bin	6800	0
bin	6900	0
bin	7000	0
bin	7100	0
bin	7200	0
bin	7300	0
bin	7400	0
bin	7500	0
bin	7600	0
bin	7700	0
bin	7800	0
bin	7900	0
bin	8000	0
bin	8100	0
bin	8200	400
bin	8300	0
bin	8400	0
bin	8500	0
bin	8600	0
bin	8700	0
bin	8800	0
bin	8900	0
bin	9000	0
bin	9100	0
bin	9200	0
bin	9300	0
scalar TsnDumbbellNetwork.client1.ieee8021q.qTagHeaderInserter flowOutgoingPacketLengths:sum 0
attr interpolationmode none
attr recordingmode sum
attr source "packetLength(demuxFlow(merge(packetPushedOut, packetPulledOut)))"
attr title "flow specific outgoing packet lengths, sum"
attr unit b
statistic TsnDumbbellNetwork.client1.ieee8021q.qTagHeaderInserter flowOutgoingPacketLengths:histogram
field count 0
field mean -nan
field stddev nan
field min nan
field max nan
field sum 0
field sqrsum 0
attr interpolationmode none
attr recordingmode histogram
attr source "packetLength(demuxFlow(merge(packetPushedOut, packetPulledOut)))"
attr title "flow specific outgoing packet lengths"
attr unit b
bin	-inf	0
bin	0	0
bin	1	0
scalar TsnDumbbellNetwork.client1.ieee8021q.qTagHeaderInserter incomingPackets:count 1201
attr recordingmode count
attr source "merge(packetPushedIn, packetPulledIn)"
attr title "incoming packets, count"
attr unit pk
scalar TsnDumbbellNetwork.client1.ieee8021q.qTagHeaderInserter incomingPacketLengths:sum 6673024
attr interpolationmode none
attr recordingmode sum
attr source "packetLength(merge(packetPushedIn, packetPulledIn))"
attr title "incoming packet lengths, sum"
attr unit b
statistic TsnDumbbellNetwork.client1.ieee8021q.qTagHeaderInserter incomingPacketLengths:histogram
field count 1201
field mean 5556.2231473772
field stddev 1886.0105523292
field min 4224
field max 8224
field sum 6673024
field sqrsum 41345253376
attr interpolationmode none
attr recordingmode histogram
attr source "packetLength(merge(packetPushedIn, packetPulledIn))"
attr title "incoming packet lengths"
attr unit b
bin	-inf	0
bin	3200	0
bin	3300	0
bin	3400	0
bin	3500	0
bin	3600	0
bin	3700	0
bin	3800	0
bin	3900	0
bin	4000	0
bin	4100	0
bin	4200	801
bin	4300	0
bin	4400	0
bin	4500	0
bin	4600	0
bin	4700	0
bin	4800	0
bin	4900	0
bin	5000	0
bin	5100	0
bin	5200	0
bin	5300	0
bin	5400	0
bin	5500	0
bin	5600	0
bin	5700	0
bin	5800	0
bin	5900	0
bin	6000	0
bin	6100	0
bin	6200	0
bin	6300	0
bin	6400	0
bin	6500	0
bin	6600	0
bin	6700	0
bin	6800	0
bin	6900	0
bin	7000	0
bin	7100	0
bin	7200	0
bin	7300	0
bin	7400	0
bin	7500	0
bin	7600	0
bin	7700	0
bin	7800	0
bin	7900	0
bin	8000	0
bin	8100	0
bin	8200	400
bin	8300	0
bin	8400	0
bin	8500	0
bin	8600	0
bin	8700	0
bin	8800	0
bin	8900	0
bin	9000	0
bin	9100	0
bin	9200	0
bin	9300	0
scalar TsnDumbbellNetwork.client1.ieee8021q.qTagHeaderInserter flowIncomingPacketLengths:sum 0
attr interpolationmode none
attr recordingmode sum
attr source "packetLength(demuxFlow(merge(packetPushedIn, packetPulledIn)))"
attr title "flow specific incoming packet lengths, sum"
attr unit b
statistic TsnDumbbellNetwork.client1.ieee8021q.qTagHeaderInserter flowIncomingPacketLengths:histogram
field count 0
field mean -nan
field stddev nan
field min nan
field max nan
field sum 0
field sqrsum 0
attr interpolationmode none
attr recordingmode histogram
attr source "packetLength(demuxFlow(merge(packetPushedIn, packetPulledIn)))"
attr title "flow specific incoming packet lengths"
attr unit b
bin	-inf	0
bin	0	0
bin	1	0
scalar TsnDumbbellNetwork.client1.ieee8021q.qTagHeaderChecker outgoingPackets:count 0
attr recordingmode count
attr source "merge(packetPushedOut, packetPulledOut)"
attr title "outgoing packets, count"
attr unit pk
scalar TsnDumbbellNetwork.client1.ieee8021q.qTagHeaderChecker outgoingPacketLengths:sum 0
attr interpolationmode none
attr recordingmode sum
attr source "packetLength(merge(packetPushedOut, packetPulledOut))"
attr title "outgoing packet lengths, sum"
attr unit b
statistic TsnDumbbellNetwork.client1.ieee8021q.qTagHeaderChecker outgoingPacketLengths:histogram
field count 0
field mean -nan
field stddev nan
field min nan
field max nan
field sum 0
field sqrsum 0
attr interpolationmode none
attr recordingmode histogram
attr source "packetLength(merge(packetPushedOut, packetPulledOut))"
attr title "outgoing packet lengths"
attr unit b
bin	-inf	0
bin	0	0
bin	1	0
scalar TsnDumbbellNetwork.client1.ieee8021q.qTagHeaderChecker flowOutgoingPacketLengths:sum 0
attr interpolationmode none
attr recordingmode sum
attr source "packetLength(demuxFlow(merge(packetPushedOut, packetPulledOut)))"
attr title "flow specific outgoing packet lengths, sum"
attr unit b
statistic TsnDumbbellNetwork.client1.ieee8021q.qTagHeaderChecker flowOutgoingPacketLengths:histogram
field count 0
field mean -nan
field stddev nan
field min nan
field max nan
field sum 0
field sqrsum 0
attr interpolationmode none
attr recordingmode histogram
attr source "packetLength(demuxFlow(merge(packetPushedOut, packetPulledOut)))"
attr title "flow specific outgoing packet lengths"
attr unit b
bin	-inf	0
bin	0	0
bin	1	0
scalar TsnDumbbellNetwork.client1.ieee8021q.qTagHeaderChecker incomingPackets:count 0
attr recordingmode count
attr source "merge(packetPushedIn, packetPulledIn)"
attr title "incoming packets, count"
attr unit pk
scalar TsnDumbbellNetwork.client1.ieee8021q.qTagHeaderChecker incomingPacketLengths:sum 0
attr interpolationmode none
attr recordingmode sum
attr source "packetLength(merge(packetPushedIn, packetPulledIn))"
attr title "incoming packet lengths, sum"
attr unit b
statistic TsnDumbbellNetwork.client1.ieee8021q.qTagHeaderChecker incomingPacketLengths:histogram
field count 0
field mean -nan
field stddev nan
field min nan
field max nan
field sum 0
field sqrsum 0
attr interpolationmode none
attr recordingmode histogram
attr source "packetLength(merge(packetPushedIn, packetPulledIn))"
attr title "incoming packet lengths"
attr unit b
bin	-inf	0
bin	0	0
bin	1	0
scalar TsnDumbbellNetwork.client1.ieee8021q.qTagHeaderChecker flowIncomingPacketLengths:sum 0
attr interpolationmode none
attr recordingmode sum
attr source "packetLength(demuxFlow(merge(packetPushedIn, packetPulledIn)))"
attr title "flow specific incoming packet lengths, sum"
attr unit b
statistic TsnDumbbellNetwork.client1.ieee8021q.qTagHeaderChecker flowIncomingPacketLengths:histogram
field count 0
field mean -nan
field stddev nan
field min nan
field max nan
field sum 0
field sqrsum 0
attr interpolationmode none
attr recordingmode histogram
attr source "packetLength(demuxFlow(merge(packetPushedIn, packetPulledIn)))"
attr title "flow specific incoming packet lengths"
attr unit b
bin	-inf	0
bin	0	0
bin	1	0
scalar TsnDumbbellNetwork.client1.ieee8021q.qTagHeaderChecker droppedPackets:count 0
attr recordingmode count
attr source packetDropped
attr title "dropped packets, count"
attr unit pk
scalar TsnDumbbellNetwork.client1.ieee8021q.qTagHeaderChecker droppedPacketLengths:sum 0
attr interpolationmode none
attr recordingmode sum
attr source packetLength(packetDropped)
attr title "dropped packet lengths, sum"
attr unit b
statistic TsnDumbbellNetwork.client1.ieee8021q.qTagHeaderChecker droppedPacketLengths:histogram
field count 0
field mean -nan
field stddev nan
field min nan
field max nan
field sum 0
field sqrsum 0
attr interpolationmode none
attr recordingmode histogram
attr source packetLength(packetDropped)
attr title "dropped packet lengths"
attr unit b
bin	-inf	0
bin	0	0
bin	1	0
scalar TsnDumbbellNetwork.client1.ieee8021q.qTagHeaderChecker flowDroppedPacketLengths:sum 0
attr interpolationmode none
attr recordingmode sum
attr source packetLength(demuxFlow(packetDropped))
attr title "flow specific dropped packet lengths, sum"
attr unit b
statistic TsnDumbbellNetwork.client1.ieee8021q.qTagHeaderChecker flowDroppedPacketLengths:histogram
field count 0
field mean -nan
field stddev nan
field min nan
field max nan
field sum 0
field sqrsum 0
attr interpolationmode none
attr recordingmode histogram
attr source packetLength(demuxFlow(packetDropped))
attr title "flow specific dropped packet lengths"
attr unit b
bin	-inf	0
bin	0	0
bin	1	0
scalar TsnDumbbellNetwork.client1.lo[0].lo rcvdPkFromHl:count 0
attr interpolationmode none
attr recordingmode count
attr source packetReceivedFromUpper
attr title "packets received from higher layer, count"
scalar TsnDumbbellNetwork.client1.lo[0].lo rcvdPkFromHl:sum(packetBytes) 0
attr interpolationmode none
attr recordingmode sum(packetBytes)
attr source packetReceivedFromUpper
attr title "packets received from higher layer, sum(packetBytes)"
scalar TsnDumbbellNetwork.client1.lo[0].lo passedUpPk:count 0
attr interpolationmode none
attr recordingmode count
attr source packetSentToUpper
attr title "packets passed to higher layer, count"
scalar TsnDumbbellNetwork.client1.lo[0].lo passedUpPk:sum(packetBytes) 0
attr interpolationmode none
attr recordingmode sum(packetBytes)
attr source packetSentToUpper
attr title "packets passed to higher layer, sum(packetBytes)"
scalar TsnDumbbellNetwork.client1.lo[0] packetDropInterfaceDown:count 0
attr interpolationmode none
attr recordingmode count
attr source packetDropReasonIsInterfaceDown(packetDropped)
attr title "packet drops: interface down, count"
scalar TsnDumbbellNetwork.client1.lo[0] packetDropInterfaceDown:sum(packetBytes) 0
attr interpolationmode none
attr recordingmode sum(packetBytes)
attr source packetDropReasonIsInterfaceDown(packetDropped)
attr title "packet drops: interface down, sum(packetBytes)"
scalar TsnDumbbellNetwork.client1.lo[0] packetDropNoCarrier:count 0
attr interpolationmode none
attr recordingmode count
attr source packetDropReasonIsNoCarrier(packetDropped)
attr title "packet drops: no carrier, count"
scalar TsnDumbbellNetwork.client1.lo[0] packetDropNoCarrier:sum(packetBytes) 0
attr interpolationmode none
attr recordingmode sum(packetBytes)
attr source packetDropReasonIsNoCarrier(packetDropped)
attr title "packet drops: no carrier, sum(packetBytes)"
scalar TsnDumbbellNetwork.client1.eth[0].macLayer.queue queueLength:last 0
attr autoWarmupFilter false
attr interpolationmode sample-hold
attr recordingmode last
attr source "warmup(atomic(constant0(packetPushEnded) + count(packetPushStarted) - count(packetPulled) - count(packetRemoved) - count(packetDropped)))"
attr title "queue length, last"
attr unit pk
scalar TsnDumbbellNetwork.client1.eth[0].macLayer.queue queueLength:max 1
attr autoWarmupFilter false
attr interpolationmode sample-hold
attr recordingmode max
attr source "warmup(atomic(constant0(packetPushEnded) + count(packetPushStarted) - count(packetPulled) - count(packetRemoved) - count(packetDropped)))"
attr title "queue length, max"
attr unit pk
scalar TsnDumbbellNetwork.client1.eth[0].macLayer.queue queueLength:timeavg 0
attr autoWarmupFilter false
attr interpolationmode sample-hold
attr recordingmode timeavg
attr source "warmup(atomic(constant0(packetPushEnded) + count(packetPushStarted) - count(packetPulled) - count(packetRemoved) - count(packetDropped)))"
attr title "queue length, timeavg"
attr unit pk
scalar TsnDumbbellNetwork.client1.eth[0].macLayer.queue queueBitLength:last 0
attr autoWarmupFilter false
attr interpolationmode sample-hold
attr recordingmode last
attr source "warmup(atomic(constant0(packetPushEnded) + sum(packetLength(packetPushStarted)) - sum(packetLength(packetPulled)) - sum(packetLength(packetRemoved)) - sum(packetLength(packetDropped))))"
attr title "queue bit length, last"
attr unit b
scalar TsnDumbbellNetwork.client1.eth[0].macLayer.queue queueBitLength:max 8400
attr autoWarmupFilter false
attr interpolationmode sample-hold
attr recordingmode max
attr source "warmup(atomic(constant0(packetPushEnded) + sum(packetLength(packetPushStarted)) - sum(packetLength(packetPulled)) - sum(packetLength(packetRemoved)) - sum(packetLength(packetDropped))))"
attr title "queue bit length, max"
attr unit b
scalar TsnDumbbellNetwork.client1.eth[0].macLayer.queue queueBitLength:timeavg 0
attr autoWarmupFilter false
attr interpolationmode sample-hold
attr recordingmode timeavg
attr source "warmup(atomic(constant0(packetPushEnded) + sum(packetLength(packetPushStarted)) - sum(packetLength(packetPulled)) - sum(packetLength(packetRemoved)) - sum(packetLength(packetDropped))))"
attr title "queue bit length, timeavg"
attr unit b
statistic TsnDumbbellNetwork.client1.eth[0].macLayer.queue queueingTime:histogram
field count 1201
field mean 0
field stddev 0
field min 0
field max 0
field sum 0
field sqrsum 0
attr interpolationmode none
attr recordingmode histogram
attr source queueingTime(packetPulled)
attr title "queueing times"
attr unit s
bin	-inf	0
bin	-0.5	0
bin	-0.48	0
bin	-0.46	0
bin	-0.44	0
bin	-0.42	0
bin	-0.4	0
bin	-0.38	0
bin	-0.36	0
bin	-0.34	0
bin	-0.32	0
bin	-0.3	0
bin	-0.28	0
bin	-0.26	0
bin	-0.24	0
bin	-0.22	0
bin	-0.2	0
bin	-0.18	0
bin	-0.16	0
bin	-0.14	0
bin	-0.12	0
bin	-0.1	0
bin	-0.08	0
bin	-0.06	0
bin	-0.04	0
bin	-0.02	0
bin	0	1201
bin	0.02	0
bin	0.04	0
bin	0.06	0
bin	0.08	0
bin	0.1	0
bin	0.12	0
bin	0.14	0
bin	0.16	0
bin	0.18	0
bin	0.2	0
bin	0.22	0
bin	0.24	0
bin	0.26	0
bin	0.28	0
bin	0.3	0
bin	0.32	0
bin	0.34	0
bin	0.36	0
bin	0.38	0
bin	0.4	0
bin	0.42	0
bin	0.44	0
bin	0.46	0
bin	0.48	0
bin	0.5	0
scalar TsnDumbbellNetwork.client1.eth[0].macLayer.queue outgoingPackets:count 1201
attr recordingmode count
attr source packetPulled
attr title "outgoing packets, count"
attr unit pk
scalar TsnDumbbellNetwork.client1.eth[0].macLayer.queue outgoingPacketLengths:sum 6884400
attr interpolationmode none
attr recordingmode sum
attr source packetLength(packetPulled)
attr title "outgoing packet lengths, sum"
attr unit b
statistic TsnDumbbellNetwork.client1.eth[0].macLayer.queue outgoingPacketLengths:histogram
field count 1201
field mean 5732.2231473772
field stddev 1886.0105523292
field min 4400
field max 8400
field sum 6884400
field sqrsum 43731360000
attr interpolationmode none
attr recordingmode histogram
attr source packetLength(packetPulled)
attr title "outgoing packet lengths"
attr unit b
bin	-inf	0
bin	3400	0
bin	3500	0
bin	3600	0
bin	3700	0
bin	3800	0
bin	3900	0
bin	4000	0
bin	4100	0
bin	4200	0
bin	4300	0
bin	4400	801
bin	4500	0
bin	4600	0
bin	4700	0
bin	4800	0
bin	4900	0
bin	5000	0
bin	5100	0
bin	5200	0
bin	5300	0
bin	5400	0
bin	5500	0
bin	5600	0
bin	5700	0
bin	5800	0
bin	5900	0
bin	6000	0
bin	6100	0
bin	6200	0
bin	6300	0
bin	6400	0
bin	6500	0
bin	6600	0
bin	6700	0
bin	6800	0
bin	6900	0
bin	7000	0
bin	7100	0
bin	7200	0
bin	7300	0
bin	7400	0
bin	7500	0
bin	7600	0
bin	7700	0
bin	7800	0
bin	7900	0
bin	8000	0
bin	8100	0
bin	8200	0
bin	8300	0
bin	8400	400
bin	8500	0
bin	8600	0
bin	8700	0
bin	8800	0
bin	8900	0
bin	9000	0
bin	9100	0
bin	9200	0
bin	9300	0
bin	9400	0
statistic TsnDumbbellNetwork.client1.eth[0].macLayer.queue flowQueueingTime:histogram
field count 0
field mean -nan
field stddev nan
field min nan
field max nan
field sum 0
field sqrsum 0
attr interpolationmode none
attr recordingmode histogram
attr source queueingTime(demuxFlow(packetPulled))
attr title "flow queueing times"
attr unit s
bin	-inf	0
bin	0	0
bin	1	0
scalar TsnDumbbellNetwork.client1.eth[0].macLayer.queue incomingPackets:count 1201
attr recordingmode count
attr source packetPushStarted
attr title "incoming packets, count"
attr unit pk
scalar TsnDumbbellNetwork.client1.eth[0].macLayer.queue incomingPacketLengths:sum 6884400
attr interpolationmode none
attr recordingmode sum
attr source packetLength(packetPushStarted)
attr title "incoming packet lengths, sum"
attr unit b
statistic TsnDumbbellNetwork.client1.eth[0].macLayer.queue incomingPacketLengths:histogram
field count 1201
field mean 5732.2231473772
field stddev 1886.0105523292
field min 4400
field max 8400
field sum 6884400
field sqrsum 43731360000
attr interpolationmode none
attr recordingmode histogram
attr source packetLength(packetPushStarted)
attr title "incoming packet lengths"
attr unit b
bin	-inf	0
bin	3400	0
bin	3500	0
bin	3600	0
bin	3700	0
bin	3800	0
bin	3900	0
bin	4000	0
bin	4100	0
bin	4200	0
bin	4300	0
bin	4400	801
bin	4500	0
bin	4600	0
bin	4700	0
bin	4800	0
bin	4900	0
bin	5000	0
bin	5100	0
bin	5200	0
bin	5300	0
bin	5400	0
bin	5500	0
bin	5600	0
bin	5700	0
bin	5800	0
bin	5900	0
bin	6000	0
bin	6100	0
bin	6200	0
bin	6300	0
bin	6400	0
bin	6500	0
bin	6600	0
bin	6700	0
bin	6800	0
bin	6900	0
bin	7000	0
bin	7100	0
bin	7200	0
bin	7300	0
bin	7400	0
bin	7500	0
bin	7600	0
bin	7700	0
bin	7800	0
bin	7900	0
bin	8000	0
bin	8100	0
bin	8200	0
bin	8300	0
bin	8400	400
bin	8500	0
bin	8600	0
bin	8700	0
bin	8800	0
bin	8900	0
bin	9000	0
bin	9100	0
bin	9200	0
bin	9300	0
bin	9400	0
scalar TsnDumbbellNetwork.client1.eth[0].macLayer.queue droppedPacketsQueueOverflow:count 0
attr interpolationmode none
attr recordingmode count
attr source packetDropReasonIsQueueOverflow(packetDropped)
attr title "dropped packets: queue overflow, count"
attr unit pk
scalar TsnDumbbellNetwork.client1.eth[0].macLayer.queue droppedPacketLengthsQueueOverflow:sum 0
attr interpolationmode none
attr recordingmode sum
attr source packetLength(packetDropReasonIsQueueOverflow(packetDropped))
attr title "dropped packet lengths: queue overflow, sum"
attr unit b
scalar TsnDumbbellNetwork.client1.eth[0].macLayer.server incomingPackets:count 1201
attr recordingmode count
attr source packetPulled
attr title "incoming packets, count"
attr unit pk
scalar TsnDumbbellNetwork.client1.eth[0].macLayer.server incomingPacketLengths:sum 6884400
attr interpolationmode none
attr recordingmode sum
attr source packetLength(packetPulled)
attr title "incoming packet lengths, sum"
attr unit b
statistic TsnDumbbellNetwork.client1.eth[0].macLayer.server incomingPacketLengths:histogram
field count 1201
field mean 5732.2231473772
field stddev 1886.0105523292
field min 4400
field max 8400
field sum 6884400
field sqrsum 43731360000
attr interpolationmode none
attr recordingmode histogram
attr source packetLength(packetPulled)
attr title "incoming packet lengths"
attr unit b
bin	-inf	0
bin	3400	0
bin	3500	0
bin	3600	0
bin	3700	0
bin	3800	0
bin	3900	0
bin	4000	0
bin	4100	0
bin	4200	0
bin	4300	0
bin	4400	801
bin	4500	0
bin	4600	0
bin	4700	0
bin	4800	0
bin	4900	0
bin	5000	0
bin	5100	0
bin	5200	0
bin	5300	0
bin	5400	0
bin	5500	0
bin	5600	0
bin	5700	0
bin	5800	0
bin	5900	0
bin	6000	0
bin	6100	0
bin	6200	0
bin	6300	0
bin	6400	0
bin	6500	0
bin	6600	0
bin	6700	0
bin	6800	0
bin	6900	0
bin	7000	0
bin	7100	0
bin	7200	0
bin	7300	0
bin	7400	0
bin	7500	0
bin	7600	0
bin	7700	0
bin	7800	0
bin	7900	0
bin	8000	0
bin	8100	0
bin	8200	0
bin	8300	0
bin	8400	400
bin	8500	0
bin	8600	0
bin	8700	0
bin	8800	0
bin	8900	0
bin	9000	0
bin	9100	0
bin	9200	0
bin	9300	0
bin	9400	0
scalar TsnDumbbellNetwork.client1.eth[0].macLayer.server outgoingPackets:count 1201
attr recordingmode count
attr source packetPushed
attr title "outgoing packets, count"
attr unit pk
scalar TsnDumbbellNetwork.client1.eth[0].macLayer.server outgoingPacketLengths:sum 6884400
attr interpolationmode none
attr recordingmode sum
attr source packetLength(packetPushed)
attr title "outgoing packet lengths, sum"
attr unit b
statistic TsnDumbbellNetwork.client1.eth[0].macLayer.server outgoingPacketLengths:histogram
field count 1201
field mean 5732.2231473772
field stddev 1886.0105523292
field min 4400
field max 8400
field sum 6884400
field sqrsum 43731360000
attr interpolationmode none
attr recordingmode histogram
attr source packetLength(packetPushed)
attr title "outgoing packet lengths"
attr unit b
bin	-inf	0
bin	3400	0
bin	3500	0
bin	3600	0
bin	3700	0
bin	3800	0
bin	3900	0
bin	4000	0
bin	4100	0
bin	4200	0
bin	4300	0
bin	4400	801
bin	4500	0
bin	4600	0
bin	4700	0
bin	4800	0
bin	4900	0
bin	5000	0
bin	5100	0
bin	5200	0
bin	5300	0
bin	5400	0
bin	5500	0
bin	5600	0
bin	5700	0
bin	5800	0
bin	5900	0
bin	6000	0
bin	6100	0
bin	6200	0
bin	6300	0
bin	6400	0
bin	6500	0
bin	6600	0
bin	6700	0
bin	6800	0
bin	6900	0
bin	7000	0
bin	7100	0
bin	7200	0
bin	7300	0
bin	7400	0
bin	7500	0
bin	7600	0
bin	7700	0
bin	7800	0
bin	7900	0
bin	8000	0
bin	8100	0
bin	8200	0
bin	8300	0
bin	8400	400
bin	8500	0
bin	8600	0
bin	8700	0
bin	8800	0
bin	8900	0
bin	9000	0
bin	9100	0
bin	9200	0
bin	9300	0
bin	9400	0
scalar TsnDumbbellNetwork.client1.eth[0].macLayer.outboundEmitter outgoingPackets:count 1201
attr recordingmode count
attr source "merge(packetPushedOut, packetPulledOut)"
attr title "outgoing packets, count"
attr unit pk
scalar TsnDumbbellNetwork.client1.eth[0].macLayer.outboundEmitter outgoingPacketLengths:sum 6884400
attr interpolationmode none
attr recordingmode sum
attr source "packetLength(merge(packetPushedOut, packetPulledOut))"
attr title "outgoing packet lengths, sum"
attr unit b
statistic TsnDumbbellNetwork.client1.eth[0].macLayer.outboundEmitter outgoingPacketLengths:histogram
field count 1201
field mean 5732.2231473772
field stddev 1886.0105523292
field min 4400
field max 8400
field sum 6884400
field sqrsum 43731360000
attr interpolationmode none
attr recordingmode histogram
attr source "packetLength(merge(packetPushedOut, packetPulledOut))"
attr title "outgoing packet lengths"
attr unit b
bin	-inf	0
bin	3400	0
bin	3500	0
bin	3600	0
bin	3700	0
bin	3800	0
bin	3900	0
bin	4000	0
bin	4100	0
bin	4200	0
bin	4300	0
bin	4400	801
bin	4500	0
bin	4600	0
bin	4700	0
bin	4800	0
bin	4900	0
bin	5000	0
bin	5100	0
bin	5200	0
bin	5300	0
bin	5400	0
bin	5500	0
bin	5600	0
bin	5700	0
bin	5800	0
bin	5900	0
bin	6000	0
bin	6100	0
bin	6200	0
bin	6300	0
bin	6400	0
bin	6500	0
bin	6600	0
bin	6700	0
bin	6800	0
bin	6900	0
bin	7000	0
bin	7100	0
bin	7200	0
bin	7300	0
bin	7400	0
bin	7500	0
bin	7600	0
bin	7700	0
bin	7800	0
bin	7900	0
bin	8000	0
bin	8100	0
bin	8200	0
bin	8300	0
bin	8400	400
bin	8500	0
bin	8600	0
bin	8700	0
bin	8800	0
bin	8900	0
bin	9000	0
bin	9100	0
bin	9200	0
bin	9300	0
bin	9400	0
scalar TsnDumbbellNetwork.client1.eth[0].macLayer.outboundEmitter flowOutgoingPacketLengths:sum 0
attr interpolationmode none
attr recordingmode sum
attr source "packetLength(demuxFlow(merge(packetPushedOut, packetPulledOut)))"
attr title "flow specific outgoing packet lengths, sum"
attr unit b
statistic TsnDumbbellNetwork.client1.eth[0].macLayer.outboundEmitter flowOutgoingPacketLengths:histogram
field count 0
field mean -nan
field stddev nan
field min nan
field max nan
field sum 0
field sqrsum 0
attr interpolationmode none
attr recordingmode histogram
attr source "packetLength(demuxFlow(merge(packetPushedOut, packetPulledOut)))"
attr title "flow specific outgoing packet lengths"
attr unit b
bin	-inf	0
bin	0	0
bin	1	0
scalar TsnDumbbellNetwork.client1.eth[0].macLayer.outboundEmitter incomingPackets:count 1201
attr recordingmode count
attr source "merge(packetPushedIn, packetPulledIn)"
attr title "incoming packets, count"
attr unit pk
scalar TsnDumbbellNetwork.client1.eth[0].macLayer.outboundEmitter incomingPacketLengths:sum 6884400
attr interpolationmode none
attr recordingmode sum
attr source "packetLength(merge(packetPushedIn, packetPulledIn))"
attr title "incoming packet lengths, sum"
attr unit b
statistic TsnDumbbellNetwork.client1.eth[0].macLayer.outboundEmitter incomingPacketLengths:histogram
field count 1201
field mean 5732.2231473772
field stddev 1886.0105523292
field min 4400
field max 8400
field sum 6884400
field sqrsum 43731360000
attr interpolationmode none
attr recordingmode histogram
attr source "packetLength(merge(packetPushedIn, packetPulledIn))"
attr title "incoming packet lengths"
attr unit b
bin	-inf	0
bin	3400	0
bin	3500	0
bin	3600	0
bin	3700	0
bin	3800	0
bin	3900	0
bin	4000	0
bin	4100	0
bin	4200	0
bin	4300	0
bin	4400	801
bin	4500	0
bin	4600	0
bin	4700	0
bin	4800	0
bin	4900	0
bin	5000	0
bin	5100	0
bin	5200	0
bin	5300	0
bin	5400	0
bin	5500	0
bin	5600	0
bin	5700	0
bin	5800	0
bin	5900	0
bin	6000	0
bin	6100	0
bin	6200	0
bin	6300	0
bin	6400	0
bin	6500	0
bin	6600	0
bin	6700	0
bin	6800	0
bin	6900	0
bin	7000	0
bin	7100	0
bin	7200	0
bin	7300	0
bin	7400	0
bin	7500	0
bin	7600	0
bin	7700	0
bin	7800	0
bin	7900	0
bin	8000	0
bin	8100	0
bin	8200	0
bin	8300	0
bin	8400	400
bin	8500	0
bin	8600	0
bin	8700	0
bin	8800	0
bin	8900	0
bin	9000	0
bin	9100	0
bin	9200	0
bin	9300	0
bin	9400	0
scalar TsnDumbbellNetwork.client1.eth[0].macLayer.outboundEmitter flowIncomingPacketLengths:sum 0
attr interpolationmode none
attr recordingmode sum
attr source "packetLength(demuxFlow(merge(packetPushedIn, packetPulledIn)))"
attr title "flow specific incoming packet lengths, sum"
attr unit b
statistic TsnDumbbellNetwork.client1.eth[0].macLayer.outboundEmitter flowIncomingPacketLengths:histogram
field count 0
field mean -nan
field stddev nan
field min nan
field max nan
field sum 0
field sqrsum 0
attr interpolationmode none
attr recordingmode histogram
attr source "packetLength(demuxFlow(merge(packetPushedIn, packetPulledIn)))"
attr title "flow specific incoming packet lengths"
attr unit b
bin	-inf	0
bin	0	0
bin	1	0
scalar TsnDumbbellNetwork.client1.eth[0].macLayer.fcsChecker outgoingPackets:count 0
attr recordingmode count
attr source "merge(packetPushedOut, packetPulledOut)"
attr title "outgoing packets, count"
attr unit pk
scalar TsnDumbbellNetwork.client1.eth[0].macLayer.fcsChecker outgoingPacketLengths:sum 0
attr interpolationmode none
attr recordingmode sum
attr source "packetLength(merge(packetPushedOut, packetPulledOut))"
attr title "outgoing packet lengths, sum"
attr unit b
statistic TsnDumbbellNetwork.client1.eth[0].macLayer.fcsChecker outgoingPacketLengths:histogram
field count 0
field mean -nan
field stddev nan
field min nan
field max nan
field sum 0
field sqrsum 0
attr interpolationmode none
attr recordingmode histogram
attr source "packetLength(merge(packetPushedOut, packetPulledOut))"
attr title "outgoing packet lengths"
attr unit b
bin	-inf	0
bin	0	0
bin	1	0
scalar TsnDumbbellNetwork.client1.eth[0].macLayer.fcsChecker flowOutgoingPacketLengths:sum 0
attr interpolationmode none
attr recordingmode sum
attr source "packetLength(demuxFlow(merge(packetPushedOut, packetPulledOut)))"
attr title "flow specific outgoing packet lengths, sum"
attr unit b
statistic TsnDumbbellNetwork.client1.eth[0].macLayer.fcsChecker flowOutgoingPacketLengths:histogram
field count 0
field mean -nan
field stddev nan
field min nan
field max nan
field sum 0
field sqrsum 0
attr interpolationmode none
attr recordingmode histogram
attr source "packetLength(demuxFlow(merge(packetPushedOut, packetPulledOut)))"
attr title "flow specific outgoing packet lengths"
attr unit b
bin	-inf	0
bin	0	0
bin	1	0
scalar TsnDumbbellNetwork.client1.eth[0].macLayer.fcsChecker incomingPackets:count 0
attr recordingmode count
attr source "merge(packetPushedIn, packetPulledIn)"
attr title "incoming packets, count"
attr unit pk
scalar TsnDumbbellNetwork.client1.eth[0].macLayer.fcsChecker incomingPacketLengths:sum 0
attr interpolationmode none
attr recordingmode sum
attr source "packetLength(merge(packetPushedIn, packetPulledIn))"
attr title "incoming packet lengths, sum"
attr unit b
statistic TsnDumbbellNetwork.client1.eth[0].macLayer.fcsChecker incomingPacketLengths:histogram
field count 0
field mean -nan
field stddev nan
field min nan
field max nan
field sum 0
field sqrsum 0
attr interpolationmode none
attr recordingmode histogram
attr source "packetLength(merge(packetPushedIn, packetPulledIn))"
attr title "incoming packet lengths"
attr unit b
bin	-inf	0
bin	0	0
bin	1	0
scalar TsnDumbbellNetwork.client1.eth[0].macLayer.fcsChecker flowIncomingPacketLengths:sum 0
attr interpolationmode none
attr recordingmode sum
attr source "packetLength(demuxFlow(merge(packetPushedIn, packetPulledIn)))"
attr title "flow specific incoming packet lengths, sum"
attr unit b
statistic TsnDumbbellNetwork.client1.eth[0].macLayer.fcsChecker flowIncomingPacketLengths:histogram
field count 0
field mean -nan
field stddev nan
field min nan
field max nan
field sum 0
field sqrsum 0
attr interpolationmode none
attr recordingmode histogram
attr source "packetLength(demuxFlow(merge(packetPushedIn, packetPulledIn)))"
attr title "flow specific incoming packet lengths"
attr unit b
bin	-inf	0
bin	0	0
bin	1	0
scalar TsnDumbbellNetwork.client1.eth[0].macLayer.fcsChecker droppedPackets:count 0
attr recordingmode count
attr source packetDropped
attr title "dropped packets, count"
attr unit pk
scalar TsnDumbbellNetwork.client1.eth[0].macLayer.fcsChecker droppedPacketLengths:sum 0
attr interpolationmode none
attr recordingmode sum
attr source packetLength(packetDropped)
attr title "dropped packet lengths, sum"
attr unit b
statistic TsnDumbbellNetwork.client1.eth[0].macLayer.fcsChecker droppedPacketLengths:histogram
field count 0
field mean -nan
field stddev nan
field min nan
field max nan
field sum 0
field sqrsum 0
attr interpolationmode none
attr recordingmode histogram
attr source packetLength(packetDropped)
attr title "dropped packet lengths"
attr unit b
bin	-inf	0
bin	0	0
bin	1	0
scalar TsnDumbbellNetwork.client1.eth[0].macLayer.fcsChecker flowDroppedPacketLengths:sum 0
attr interpolationmode none
attr recordingmode sum
attr source packetLength(demuxFlow(packetDropped))
attr title "flow specific dropped packet lengths, sum"
attr unit b
statistic TsnDumbbellNetwork.client1.eth[0].macLayer.fcsChecker flowDroppedPacketLengths:histogram
field count 0
field mean -nan
field stddev nan
field min nan
field max nan
field sum 0
field sqrsum 0
attr interpolationmode none
attr recordingmode histogram
attr source packetLength(demuxFlow(packetDropped))
attr title "flow specific dropped packet lengths"
attr unit b
bin	-inf	0
bin	0	0
bin	1	0
scalar TsnDumbbellNetwork.client1.eth[0].macLayer.inboundEmitter outgoingPackets:count 0
attr recordingmode count
attr source "merge(packetPushedOut, packetPulledOut)"
attr title "outgoing packets, count"
attr unit pk
scalar TsnDumbbellNetwork.client1.eth[0].macLayer.inboundEmitter outgoingPacketLengths:sum 0
attr interpolationmode none
attr recordingmode sum
attr source "packetLength(merge(packetPushedOut, packetPulledOut))"
attr title "outgoing packet lengths, sum"
attr unit b
statistic TsnDumbbellNetwork.client1.eth[0].macLayer.inboundEmitter outgoingPacketLengths:histogram
field count 0
field mean -nan
field stddev nan
field min nan
field max nan
field sum 0
field sqrsum 0
attr interpolationmode none
attr recordingmode histogram
attr source "packetLength(merge(packetPushedOut, packetPulledOut))"
attr title "outgoing packet lengths"
attr unit b
bin	-inf	0
bin	0	0
bin	1	0
scalar TsnDumbbellNetwork.client1.eth[0].macLayer.inboundEmitter flowOutgoingPacketLengths:sum 0
attr interpolationmode none
attr recordingmode sum
attr source "packetLength(demuxFlow(merge(packetPushedOut, packetPulledOut)))"
attr title "flow specific outgoing packet lengths, sum"
attr unit b
statistic TsnDumbbellNetwork.client1.eth[0].macLayer.inboundEmitter flowOutgoingPacketLengths:histogram
field count 0
field mean -nan
field stddev nan
field min nan
field max nan
field sum 0
field sqrsum 0
attr interpolationmode none
attr recordingmode histogram
attr source "packetLength(demuxFlow(merge(packetPushedOut, packetPulledOut)))"
attr title "flow specific outgoing packet lengths"
attr unit b
bin	-inf	0
bin	0	0
bin	1	0
scalar TsnDumbbellNetwork.client1.eth[0].macLayer.inboundEmitter incomingPackets:count 0
attr recordingmode count
attr source "merge(packetPushedIn, packetPulledIn)"
attr title "incoming packets, count"
attr unit pk
scalar TsnDumbbellNetwork.client1.eth[0].macLayer.inboundEmitter incomingPacketLengths:sum 0
attr interpolationmode none
attr recordingmode sum
attr source "packetLength(merge(packetPushedIn, packetPulledIn))"
attr title "incoming packet lengths, sum"
attr unit b
statistic TsnDumbbellNetwork.client1.eth[0].macLayer.inboundEmitter incomingPacketLengths:histogram
field count 0
field mean -nan
field stddev nan
field min nan
field max nan
field sum 0
field sqrsum 0
attr interpolationmode none
attr recordingmode histogram
attr source "packetLength(merge(packetPushedIn, packetPulledIn))"
attr title "incoming packet lengths"
attr unit b
bin	-inf	0
bin	0	0
bin	1	0
scalar TsnDumbbellNetwork.client1.eth[0].macLayer.inboundEmitter flowIncomingPacketLengths:sum 0
attr interpolationmode none
attr recordingmode sum
attr source "packetLength(demuxFlow(merge(packetPushedIn, packetPulledIn)))"
attr title "flow specific incoming packet lengths, sum"
attr unit b
statistic TsnDumbbellNetwork.client1.eth[0].macLayer.inboundEmitter flowIncomingPacketLengths:histogram
field count 0
field mean -nan
field stddev nan
field min nan
field max nan
field sum 0
field sqrsum 0
attr interpolationmode none
attr recordingmode histogram
attr source "packetLength(demuxFlow(merge(packetPushedIn, packetPulledIn)))"
attr title "flow specific incoming packet lengths"
attr unit b
bin	-inf	0
bin	0	0
bin	1	0
scalar TsnDumbbellNetwork.client1.eth[0].phyLayer.phyHeaderInserter outgoingPackets:count 1201
attr recordingmode count
attr source "merge(packetPushedOut, packetPulledOut)"
attr title "outgoing packets, count"
attr unit pk
scalar TsnDumbbellNetwork.client1.eth[0].phyLayer.phyHeaderInserter outgoingPacketLengths:sum 6961264
attr interpolationmode none
attr recordingmode sum
attr source "packetLength(merge(packetPushedOut, packetPulledOut))"
attr title "outgoing packet lengths, sum"
attr unit b
statistic TsnDumbbellNetwork.client1.eth[0].phyLayer.phyHeaderInserter outgoingPacketLengths:histogram
field count 1201
field mean 5796.2231473772
field stddev 1886.0105523292
field min 4464
field max 8464
field sum 6961264
field sqrsum 44617482496
attr interpolationmode none
attr recordingmode histogram
attr source "packetLength(merge(packetPushedOut, packetPulledOut))"
attr title "outgoing packet lengths"
attr unit b
bin	-inf	0
bin	3400	0
bin	3500	0
bin	3600	0
bin	3700	0
bin	3800	0
bin	3900	0
bin	4000	0
bin	4100	0
bin	4200	0
bin	4300	0
bin	4400	801
bin	4500	0
bin	4600	0
bin	4700	0
bin	4800	0
bin	4900	0
bin	5000	0
bin	5100	0
bin	5200	0
bin	5300	0
bin	5400	0
bin	5500	0
bin	5600	0
bin	5700	0
bin	5800	0
bin	5900	0
bin	6000	0
bin	6100	0
bin	6200	0
bin	6300	0
bin	6400	0
bin	6500	0
bin	6600	0
bin	6700	0
bin	6800	0
bin	6900	0
bin	7000	0
bin	7100	0
bin	7200	0
bin	7300	0
bin	7400	0
bin	7500	0
bin	7600	0
bin	7700	0
bin	7800	0
bin	7900	0
bin	8000	0
bin	8100	0
bin	8200	0
bin	8300	0
bin	8400	400
bin	8500	0
bin	8600	0
bin	8700	0
bin	8800	0
bin	8900	0
bin	9000	0
bin	9100	0
bin	9200	0
bin	9300	0
bin	9400	0
bin	9500	0
scalar TsnDumbbellNetwork.client1.eth[0].phyLayer.phyHeaderInserter flowOutgoingPacketLengths:sum 0
attr interpolationmode none
attr recordingmode sum
attr source "packetLength(demuxFlow(merge(packetPushedOut, packetPulledOut)))"
attr title "flow specific outgoing packet lengths, sum"
attr unit b
statistic TsnDumbbellNetwork.client1.eth[0].phyLayer.phyHeaderInserter flowOutgoingPacketLengths:histogram
field count 0
field mean -nan
field stddev nan
field min nan
field max nan
field sum 0
field sqrsum 0
attr interpolationmode none
attr recordingmode histogram
attr source "packetLength(demuxFlow(merge(packetPushedOut, packetPulledOut)))"
[...]
attr title "packets sent, count"
scalar TsnDumbbellNetwork.server2.app[1].io packetSent:sum(packetBytes) 0
attr interpolationmode none
attr moduledisplaypath "TsnDumbbellNetwork.server2.best effort.io"
attr recordingmode sum(packetBytes)
attr source packetSent
attr title "packets sent, sum(packetBytes)"
scalar TsnDumbbellNetwork.server2.app[2].sink packets:count 800
attr moduledisplaypath TsnDumbbellNetwork.server2.video.sink
attr recordingmode count
attr source packetPushed
attr title "packets, count"
attr unit pk
scalar TsnDumbbellNetwork.server2.app[2].sink packetLengths:sum 3200000
attr interpolationmode none
attr moduledisplaypath TsnDumbbellNetwork.server2.video.sink
attr recordingmode sum
attr source packetLength(packetPushed)
attr title "packet lengths, sum"
attr unit b
statistic TsnDumbbellNetwork.server2.app[2].sink packetLengths:histogram
field count 800
field mean 4000
field stddev 0
field min 4000
field max 4000
field sum 3200000
field sqrsum 12800000000
attr interpolationmode none
attr moduledisplaypath TsnDumbbellNetwork.server2.video.sink
attr recordingmode histogram
attr source packetLength(packetPushed)
attr title "packet lengths"
attr unit b
bin	-inf	0
bin	3999	0
bin	4000	800
bin	4001	0
statistic TsnDumbbellNetwork.server2.app[2].sink meanBitLifeTimePerPacket:histogram
field count 799
field mean 0.00013717387984981
field stddev 5.3749602752607e-06
field min 0.00013407
field max 0.00014647
field sum 0.10960193
field sqrsum 1.50575763551e-05
attr interpolationmode none
attr moduledisplaypath TsnDumbbellNetwork.server2.video.sink
attr recordingmode histogram
attr source weightedMeanPerGroup(groupRegionsPerPacket(lifeTimePerRegion(packetPushed)))
attr title "mean bit life time per packet"
attr unit s
bin	-inf	0
bin	0.0001308	0
bin	0.000131	0
bin	0.0001312	0
bin	0.0001314	0
bin	0.0001316	0
bin	0.0001318	0
bin	0.000132	0
bin	0.0001322	0
bin	0.0001324	0
bin	0.0001326	0
bin	0.0001328	0
bin	0.000133	0
bin	0.0001332	0
bin	0.0001334	0
bin	0.0001336	0
bin	0.0001338	0
bin	0.000134	599
bin	0.0001342	0
bin	0.0001344	0
bin	0.0001346	0
bin	0.0001348	0
bin	0.000135	0
bin	0.0001352	0
bin	0.0001354	0
bin	0.0001356	0
bin	0.0001358	0
bin	0.000136	0
bin	0.0001362	0
bin	0.0001364	0
bin	0.0001366	0
bin	0.0001368	0
bin	0.000137	0
bin	0.0001372	0
bin	0.0001374	0
bin	0.0001376	0
bin	0.0001378	0
bin	0.000138	0
bin	0.0001382	0
bin	0.0001384	0
bin	0.0001386	0
bin	0.0001388	0
bin	0.000139	0
bin	0.0001392	0
bin	0.0001394	0
bin	0.0001396	0
bin	0.0001398	0
bin	0.00014	0
bin	0.0001402	0
bin	0.0001404	0
bin	0.0001406	0
bin	0.0001408	0
bin	0.000141	0
bin	0.0001412	0
bin	0.0001414	0
bin	0.0001416	0
bin	0.0001418	0
bin	0.000142	0
bin	0.0001422	0
bin	0.0001424	0
bin	0.0001426	0
bin	0.0001428	0
bin	0.000143	0
bin	0.0001432	0
bin	0.0001434	0
bin	0.0001436	0
bin	0.0001438	0
bin	0.000144	0
bin	0.0001442	0
bin	0.0001444	0
bin	0.0001446	0
bin	0.0001448	0
bin	0.000145	0
bin	0.0001452	0
bin	0.0001454	0
bin	0.0001456	0
bin	0.0001458	0
bin	0.000146	0
bin	0.0001462	0
bin	0.0001464	200
bin	0.0001466	0
bin	0.0001468	0
bin	0.000147	0
bin	0.0001472	0
bin	0.0001474	0
bin	0.0001476	0
bin	0.0001478	0
bin	0.000148	0
bin	0.0001482	0
bin	0.0001484	0
bin	0.0001486	0
bin	0.0001488	0
bin	0.000149	0
bin	0.0001492	0
bin	0.0001494	0
bin	0.0001496	0
statistic TsnDumbbellNetwork.server2.app[2].sink packetJitter:histogram
field count 799
field mean 1.677972465582e-07
field stddev 9.9784396851571e-06
field min -1.24e-05
field max 0.00013407
field sum 0.00013407
field sqrsum 7.94787649e-08
attr interpolationmode none
attr moduledisplaypath TsnDumbbellNetwork.server2.video.sink
attr recordingmode histogram
attr source jitter(weightedMeanPerGroup(groupRegionsPerPacket(lifeTimePerRegion(packetPushed))))
attr title "packet jitter"
attr unit s
bin	-inf	0
bin	-5e-05	0
bin	-4.5e-05	0
bin	-4e-05	0
bin	-3.5e-05	0
bin	-3e-05	0
bin	-2.5e-05	0
bin	-2e-05	0
bin	-1.5e-05	200
bin	-1e-05	0
bin	-5e-06	0
bin	0	398
bin	5e-06	0
bin	1e-05	200
bin	1.5e-05	0
bin	2e-05	0
bin	2.5e-05	0
bin	3e-05	0
bin	3.5e-05	0
bin	4e-05	0
bin	4.5e-05	0
bin	5e-05	0
bin	5.5e-05	0
bin	6e-05	0
bin	6.5e-05	0
bin	7e-05	0
bin	7.5e-05	0
bin	8e-05	0
bin	8.5e-05	0
bin	9e-05	0
bin	9.5e-05	0
bin	0.0001	0
bin	0.000105	0
bin	0.00011	0
bin	0.000115	0
bin	0.00012	0
bin	0.000125	0
bin	0.00013	1
bin	0.000135	0
bin	0.00014	0
bin	0.000145	0
bin	0.00015	0
bin	0.000155	0
bin	0.00016	0
bin	0.000165	0
bin	0.00017	0
bin	0.000175	0
statistic TsnDumbbellNetwork.server2.app[2].sink packetDelayDifferenceToMean:histogram
field count 799
field mean 7.1627500168889e-09
field stddev 5.3515042341294e-06
field min -9.2922305764414e-06
field max 4.1333333333333e-06
field sum 5.7230372634942e-06
field sqrsum 2.2853641851874e-08
attr interpolationmode none
attr moduledisplaypath TsnDumbbellNetwork.server2.video.sink
attr recordingmode histogram
attr source differenceToMean(weightedMeanPerGroup(groupRegionsPerPacket(lifeTimePerRegion(packetPushed))))
attr title "packet delay difference to mean"
attr unit s
bin	-inf	0
bin	-1.28e-05	0
bin	-1.26e-05	0
bin	-1.24e-05	0
bin	-1.22e-05	0
bin	-1.2e-05	0
bin	-1.18e-05	0
bin	-1.16e-05	0
bin	-1.14e-05	0
bin	-1.12e-05	0
bin	-1.1e-05	0
bin	-1.08e-05	0
bin	-1.06e-05	0
bin	-1.04e-05	0
bin	-1.02e-05	0
bin	-1e-05	0
bin	-9.8e-06	0
bin	-9.6e-06	0
bin	-9.4e-06	185
bin	-9.2e-06	10
bin	-9e-06	2
bin	-8.8e-06	1
bin	-8.6e-06	0
bin	-8.4e-06	1
bin	-8.2e-06	0
bin	-8e-06	0
bin	-7.8e-06	0
bin	-7.6e-06	0
bin	-7.4e-06	0
bin	-7.2e-06	0
bin	-7e-06	0
bin	-6.8e-06	0
bin	-6.6e-06	0
bin	-6.4e-06	0
bin	-6.2e-06	1
bin	-6e-06	0
bin	-5.8e-06	0
bin	-5.6e-06	0
bin	-5.4e-06	0
bin	-5.2e-06	0
bin	-5e-06	0
bin	-4.8e-06	0
bin	-4.6e-06	0
bin	-4.4e-06	0
bin	-4.2e-06	0
bin	-4e-06	0
bin	-3.8e-06	0
bin	-3.6e-06	0
bin	-3.4e-06	0
bin	-3.2e-06	0
bin	-3e-06	0
bin	-2.8e-06	0
bin	-2.6e-06	0
bin	-2.4e-06	0
bin	-2.2e-06	0
bin	-2e-06	0
bin	-1.8e-06	0
bin	-1.6e-06	0
bin	-1.4e-06	0
bin	-1.2e-06	0
bin	-1e-06	0
bin	-8e-07	0
bin	-6e-07	0
bin	-4e-07	0
bin	-2e-07	0
bin	0	1
bin	2e-07	0
bin	4e-07	0
bin	6e-07	0
bin	8e-07	0
bin	1e-06	0
bin	1.2e-06	0
bin	1.4e-06	0
bin	1.6e-06	0
bin	1.8e-06	0
bin	2e-06	0
bin	2.2e-06	0
bin	2.4e-06	1
bin	2.6e-06	1
bin	2.8e-06	5
bin	3e-06	583
bin	3.2e-06	6
bin	3.4e-06	1
bin	3.6e-06	0
bin	3.8e-06	0
bin	4e-06	1
bin	4.2e-06	0
bin	4.4e-06	0
bin	4.6e-06	0
bin	4.8e-06	0
bin	5e-06	0
bin	5.2e-06	0
bin	5.4e-06	0
bin	5.6e-06	0
bin	5.8e-06	0
bin	6e-06	0
bin	6.2e-06	0
bin	6.4e-06	0
bin	6.6e-06	0
bin	6.8e-06	0
bin	7e-06	0
bin	7.2e-06	0
bin	7.4e-06	0
bin	7.6e-06	0
statistic TsnDumbbellNetwork.server2.app[2].sink packetDelayVariation:histogram
field count 799
field mean 5.36939022574e-06
field stddev 1.9623129392149e-07
field min 0
field max 6.2000000305565e-06
field sum 0.0042901427903663
field sqrsum 2.3066179128751e-08
attr moduledisplaypath TsnDumbbellNetwork.server2.video.sink
attr recordingmode histogram
attr source stddev(weightedMeanPerGroup(groupRegionsPerPacket(lifeTimePerRegion(packetPushed))))
attr title "packet delay variation"
attr unit s
bin	-inf	0
bin	0	1
bin	1e-07	0
bin	2e-07	0
bin	3e-07	0
bin	4e-07	0
bin	5e-07	0
bin	6e-07	0
bin	7e-07	0
bin	8e-07	0
bin	9e-07	0
bin	1e-06	0
bin	1.1e-06	0
bin	1.2e-06	0
bin	1.3e-06	0
bin	1.4e-06	0
bin	1.5e-06	0
bin	1.6e-06	0
bin	1.7e-06	0
bin	1.8e-06	0
bin	1.9e-06	0
bin	2e-06	0
bin	2.1e-06	0
bin	2.2e-06	0
bin	2.3e-06	0
bin	2.4e-06	0
bin	2.5e-06	0
bin	2.6e-06	0
bin	2.7e-06	0
bin	2.8e-06	0
bin	2.9e-06	0
bin	3e-06	0
bin	3.1e-06	0
bin	3.2e-06	0
bin	3.3e-06	0
bin	3.4e-06	0
bin	3.5e-06	0
bin	3.6e-06	0
bin	3.7e-06	0
bin	3.8e-06	0
bin	3.9e-06	0
bin	4e-06	0
bin	4.1e-06	0
bin	4.2e-06	0
bin	4.3e-06	0
bin	4.4e-06	0
bin	4.5e-06	0
bin	4.6e-06	0
bin	4.7e-06	0
bin	4.8e-06	0
bin	4.9e-06	1
bin	5e-06	0
bin	5.1e-06	1
bin	5.2e-06	4
bin	5.3e-06	749
bin	5.4e-06	33
bin	5.5e-06	4
bin	5.6e-06	3
bin	5.7e-06	0
bin	5.8e-06	2
bin	5.9e-06	0
bin	6e-06	0
bin	6.1e-06	0
bin	6.2e-06	1
bin	6.3e-06	0
bin	6.4e-06	0
bin	6.5e-06	0
bin	6.6e-06	0
bin	6.7e-06	0
bin	6.8e-06	0
bin	6.9e-06	0
bin	7e-06	0
bin	7.1e-06	0
bin	7.2e-06	0
bin	7.3e-06	0
bin	7.4e-06	0
bin	7.5e-06	0
bin	7.6e-06	0
bin	7.7e-06	0
bin	7.8e-06	0
scalar TsnDumbbellNetwork.server2.app[2].sink droppedPackets:count 800
attr moduledisplaypath TsnDumbbellNetwork.server2.video.sink
attr recordingmode count
attr source packetDropped
attr title "dropped packets, count"
attr unit pk
scalar TsnDumbbellNetwork.server2.app[2].sink droppedPacketLengths:sum 3200000
attr interpolationmode none
attr moduledisplaypath TsnDumbbellNetwork.server2.video.sink
attr recordingmode sum
attr source packetLength(packetDropped)
attr title "dropped packet lengths, sum"
attr unit b
statistic TsnDumbbellNetwork.server2.app[2].sink droppedPacketLengths:histogram
field count 800
field mean 4000
field stddev 0
field min 4000
field max 4000
field sum 3200000
field sqrsum 12800000000
attr interpolationmode none
attr moduledisplaypath TsnDumbbellNetwork.server2.video.sink
attr recordingmode histogram
attr source packetLength(packetDropped)
attr title "dropped packet lengths"
attr unit b
bin	-inf	0
bin	3999	0
bin	4000	800
bin	4001	0
scalar TsnDumbbellNetwork.server2.app[2].io "packets sent" 0
scalar TsnDumbbellNetwork.server2.app[2].io "packets received" 800
scalar TsnDumbbellNetwork.server2.app[2].io packetReceived:count 800
attr interpolationmode none
attr moduledisplaypath TsnDumbbellNetwork.server2.video.io
attr recordingmode count
attr source packetReceived
attr title "packets received, count"
scalar TsnDumbbellNetwork.server2.app[2].io packetReceived:sum(packetBytes) 400000
attr interpolationmode none
attr moduledisplaypath TsnDumbbellNetwork.server2.video.io
attr recordingmode sum(packetBytes)
attr source packetReceived
attr title "packets received, sum(packetBytes)"
scalar TsnDumbbellNetwork.server2.app[2].io packetSent:count 0
attr interpolationmode none
attr moduledisplaypath TsnDumbbellNetwork.server2.video.io
attr recordingmode count
attr source packetSent
attr title "packets sent, count"
scalar TsnDumbbellNetwork.server2.app[2].io packetSent:sum(packetBytes) 0
attr interpolationmode none
attr moduledisplaypath TsnDumbbellNetwork.server2.video.io
attr recordingmode sum(packetBytes)
attr source packetSent
attr title "packets sent, sum(packetBytes)"
scalar TsnDumbbellNetwork.server2.app[3].sink packets:count 800
attr moduledisplaypath TsnDumbbellNetwork.server2.video.sink
attr recordingmode count
attr source packetPushed
attr title "packets, count"
attr unit pk
scalar TsnDumbbellNetwork.server2.app[3].sink packetLengths:sum 3200000
attr interpolationmode none
attr moduledisplaypath TsnDumbbellNetwork.server2.video.sink
attr recordingmode sum
attr source packetLength(packetPushed)
attr title "packet lengths, sum"
attr unit b
statistic TsnDumbbellNetwork.server2.app[3].sink packetLengths:histogram
field count 800
field mean 4000
field stddev 0
field min 4000
field max 4000
field sum 3200000
field sqrsum 12800000000
attr interpolationmode none
attr moduledisplaypath TsnDumbbellNetwork.server2.video.sink
attr recordingmode histogram
attr source packetLength(packetPushed)
attr title "packet lengths"
attr unit b
bin	-inf	0
bin	3999	0
bin	4000	800
bin	4001	0
statistic TsnDumbbellNetwork.server2.app[3].sink meanBitLifeTimePerPacket:histogram
field count 799
field mean 0.00013717387984981
field stddev 5.3749602752607e-06
field min 0.00013407
field max 0.00014647
field sum 0.10960193
field sqrsum 1.50575763551e-05
attr interpolationmode none
attr moduledisplaypath TsnDumbbellNetwork.server2.video.sink
attr recordingmode histogram
attr source weightedMeanPerGroup(groupRegionsPerPacket(lifeTimePerRegion(packetPushed)))
attr title "mean bit life time per packet"
attr unit s
bin	-inf	0
bin	0.0001308	0
bin	0.000131	0
bin	0.0001312	0
bin	0.0001314	0
bin	0.0001316	0
bin	0.0001318	0
bin	0.000132	0
bin	0.0001322	0
bin	0.0001324	0
bin	0.0001326	0
bin	0.0001328	0
bin	0.000133	0
bin	0.0001332	0
bin	0.0001334	0
bin	0.0001336	0
bin	0.0001338	0
bin	0.000134	599
bin	0.0001342	0
bin	0.0001344	0
bin	0.0001346	0
bin	0.0001348	0
bin	0.000135	0
bin	0.0001352	0
bin	0.0001354	0
bin	0.0001356	0
bin	0.0001358	0
bin	0.000136	0
bin	0.0001362	0
bin	0.0001364	0
bin	0.0001366	0
bin	0.0001368	0
bin	0.000137	0
bin	0.0001372	0
bin	0.0001374	0
bin	0.0001376	0
bin	0.0001378	0
bin	0.000138	0
bin	0.0001382	0
bin	0.0001384	0
bin	0.0001386	0
bin	0.0001388	0
bin	0.000139	0
bin	0.0001392	0
bin	0.0001394	0
bin	0.0001396	0
bin	0.0001398	0
bin	0.00014	0
bin	0.0001402	0
bin	0.0001404	0
bin	0.0001406	0
bin	0.0001408	0
bin	0.000141	0
bin	0.0001412	0
bin	0.0001414	0
bin	0.0001416	0
bin	0.0001418	0
bin	0.000142	0
bin	0.0001422	0
bin	0.0001424	0
bin	0.0001426	0
bin	0.0001428	0
bin	0.000143	0
bin	0.0001432	0
bin	0.0001434	0
bin	0.0001436	0
bin	0.0001438	0
bin	0.000144	0
bin	0.0001442	0
bin	0.0001444	0
bin	0.0001446	0
bin	0.0001448	0
bin	0.000145	0
bin	0.0001452	0
bin	0.0001454	0
bin	0.0001456	0
bin	0.0001458	0
bin	0.000146	0
bin	0.0001462	0
bin	0.0001464	200
bin	0.0001466	0
bin	0.0001468	0
bin	0.000147	0
bin	0.0001472	0
bin	0.0001474	0
bin	0.0001476	0
bin	0.0001478	0
bin	0.000148	0
bin	0.0001482	0
bin	0.0001484	0
bin	0.0001486	0
bin	0.0001488	0
bin	0.000149	0
bin	0.0001492	0
bin	0.0001494	0
bin	0.0001496	0
statistic TsnDumbbellNetwork.server2.app[3].sink packetJitter:histogram
field count 799
field mean 1.677972465582e-07
field stddev 9.9784396851571e-06
field min -1.24e-05
field max 0.00013407
field sum 0.00013407
field sqrsum 7.94787649e-08
attr interpolationmode none
attr moduledisplaypath TsnDumbbellNetwork.server2.video.sink
attr recordingmode histogram
attr source jitter(weightedMeanPerGroup(groupRegionsPerPacket(lifeTimePerRegion(packetPushed))))
attr title "packet jitter"
attr unit s
bin	-inf	0
bin	-5e-05	0
bin	-4.5e-05	0
bin	-4e-05	0
bin	-3.5e-05	0
bin	-3e-05	0
bin	-2.5e-05	0
bin	-2e-05	0
bin	-1.5e-05	200
bin	-1e-05	0
bin	-5e-06	0
bin	0	398
bin	5e-06	0
bin	1e-05	200
bin	1.5e-05	0
bin	2e-05	0
bin	2.5e-05	0
bin	3e-05	0
bin	3.5e-05	0
bin	4e-05	0
bin	4.5e-05	0
bin	5e-05	0
bin	5.5e-05	0
bin	6e-05	0
bin	6.5e-05	0
bin	7e-05	0
bin	7.5e-05	0
bin	8e-05	0
bin	8.5e-05	0
bin	9e-05	0
bin	9.5e-05	0
bin	0.0001	0
bin	0.000105	0
bin	0.00011	0
bin	0.000115	0
bin	0.00012	0
bin	0.000125	0
bin	0.00013	1
bin	0.000135	0
bin	0.00014	0
bin	0.000145	0
bin	0.00015	0
bin	0.000155	0
bin	0.00016	0
bin	0.000165	0
bin	0.00017	0
bin	0.000175	0
statistic TsnDumbbellNetwork.server2.app[3].sink packetDelayDifferenceToMean:histogram
field count 799
field mean 7.1627500168889e-09
field stddev 5.3515042341294e-06
field min -9.2922305764414e-06
field max 4.1333333333333e-06
field sum 5.7230372634942e-06
field sqrsum 2.2853641851874e-08
attr interpolationmode none
attr moduledisplaypath TsnDumbbellNetwork.server2.video.sink
attr recordingmode histogram
attr source differenceToMean(weightedMeanPerGroup(groupRegionsPerPacket(lifeTimePerRegion(packetPushed))))
attr title "packet delay difference to mean"
attr unit s
bin	-inf	0
bin	-1.28e-05	0
bin	-1.26e-05	0
bin	-1.24e-05	0
bin	-1.22e-05	0
bin	-1.2e-05	0
bin	-1.18e-05	0
bin	-1.16e-05	0
bin	-1.14e-05	0
bin	-1.12e-05	0
bin	-1.1e-05	0
bin	-1.08e-05	0
bin	-1.06e-05	0
bin	-1.04e-05	0
bin	-1.02e-05	0
bin	-1e-05	0
bin	-9.8e-06	0
bin	-9.6e-06	0
bin	-9.4e-06	185
bin	-9.2e-06	10
bin	-9e-06	2
bin	-8.8e-06	1
bin	-8.6e-06	0
bin	-8.4e-06	1
bin	-8.2e-06	0
bin	-8e-06	0
bin	-7.8e-06	0
bin	-7.6e-06	0
bin	-7.4e-06	0
bin	-7.2e-06	0
bin	-7e-06	0
bin	-6.8e-06	0
bin	-6.6e-06	0
bin	-6.4e-06	0
bin	-6.2e-06	1
bin	-6e-06	0
bin	-5.8e-06	0
bin	-5.6e-06	0
bin	-5.4e-06	0
bin	-5.2e-06	0
bin	-5e-06	0
bin	-4.8e-06	0
bin	-4.6e-06	0
bin	-4.4e-06	0
bin	-4.2e-06	0
bin	-4e-06	0
bin	-3.8e-06	0
bin	-3.6e-06	0
bin	-3.4e-06	0
bin	-3.2e-06	0
bin	-3e-06	0
bin	-2.8e-06	0
bin	-2.6e-06	0
bin	-2.4e-06	0
bin	-2.2e-06	0
bin	-2e-06	0
bin	-1.8e-06	0
bin	-1.6e-06	0
bin	-1.4e-06	0
bin	-1.2e-06	0
bin	-1e-06	0
bin	-8e-07	0
bin	-6e-07	0
bin	-4e-07	0
bin	-2e-07	0
bin	0	1
bin	2e-07	0
bin	4e-07	0
bin	6e-07	0
bin	8e-07	0
bin	1e-06	0
bin	1.2e-06	0
bin	1.4e-06	0
bin	1.6e-06	0
bin	1.8e-06	0
bin	2e-06	0
bin	2.2e-06	0
bin	2.4e-06	1
bin	2.6e-06	1
bin	2.8e-06	5
bin	3e-06	583
bin	3.2e-06	6
bin	3.4e-06	1
bin	3.6e-06	0
bin	3.8e-06	0
bin	4e-06	1
bin	4.2e-06	0
bin	4.4e-06	0
bin	4.6e-06	0
bin	4.8e-06	0
bin	5e-06	0
bin	5.2e-06	0
bin	5.4e-06	0
bin	5.6e-06	0
bin	5.8e-06	0
bin	6e-06	0
bin	6.2e-06	0
bin	6.4e-06	0
bin	6.6e-06	0
bin	6.8e-06	0
bin	7e-06	0
bin	7.2e-06	0
bin	7.4e-06	0
bin	7.6e-06	0
statistic TsnDumbbellNetwork.server2.app[3].sink packetDelayVariation:histogram
field count 799
field mean 5.36939022574e-06
field stddev 1.9623129392149e-07
field min 0
field max 6.2000000305565e-06
field sum 0.0042901427903663
field sqrsum 2.3066179128751e-08
attr moduledisplaypath TsnDumbbellNetwork.server2.video.sink
attr recordingmode histogram
attr source stddev(weightedMeanPerGroup(groupRegionsPerPacket(lifeTimePerRegion(packetPushed))))
attr title "packet delay variation"
attr unit s
bin	-inf	0
bin	0	1
bin	1e-07	0
bin	2e-07	0
bin	3e-07	0
bin	4e-07	0
bin	5e-07	0
bin	6e-07	0
bin	7e-07	0
bin	8e-07	0
bin	9e-07	0
bin	1e-06	0
bin	1.1e-06	0
bin	1.2e-06	0
bin	1.3e-06	0
bin	1.4e-06	0
bin	1.5e-06	0
bin	1.6e-06	0
bin	1.7e-06	0
bin	1.8e-06	0
bin	1.9e-06	0
bin	2e-06	0
bin	2.1e-06	0
bin	2.2e-06	0
bin	2.3e-06	0
bin	2.4e-06	0
bin	2.5e-06	0
bin	2.6e-06	0
bin	2.7e-06	0
bin	2.8e-06	0
bin	2.9e-06	0
bin	3e-06	0
bin	3.1e-06	0
bin	3.2e-06	0
bin	3.3e-06	0
bin	3.4e-06	0
bin	3.5e-06	0
bin	3.6e-06	0
bin	3.7e-06	0
bin	3.8e-06	0
bin	3.9e-06	0
bin	4e-06	0
bin	4.1e-06	0
bin	4.2e-06	0
bin	4.3e-06	0
bin	4.4e-06	0
bin	4.5e-06	0
bin	4.6e-06	0
bin	4.7e-06	0
bin	4.8e-06	0
bin	4.9e-06	1
bin	5e-06	0
bin	5.1e-06	1
bin	5.2e-06	4
bin	5.3e-06	749
bin	5.4e-06	33
bin	5.5e-06	4
bin	5.6e-06	3
bin	5.7e-06	0
bin	5.8e-06	2
bin	5.9e-06	0
bin	6e-06	0
bin	6.1e-06	0
bin	6.2e-06	1
bin	6.3e-06	0
bin	6.4e-06	0
bin	6.5e-06	0
bin	6.6e-06	0
bin	6.7e-06	0
bin	6.8e-06	0
bin	6.9e-06	0
bin	7e-06	0
bin	7.1e-06	0
bin	7.2e-06	0
bin	7.3e-06	0
bin	7.4e-06	0
bin	7.5e-06	0
bin	7.6e-06	0
bin	7.7e-06	0
bin	7.8e-06	0
scalar TsnDumbbellNetwork.server2.app[3].sink droppedPackets:count 800
attr moduledisplaypath TsnDumbbellNetwork.server2.video.sink
attr recordingmode count
attr source packetDropped
attr title "dropped packets, count"
attr unit pk
scalar TsnDumbbellNetwork.server2.app[3].sink droppedPacketLengths:sum 3200000
attr interpolationmode none
attr moduledisplaypath TsnDumbbellNetwork.server2.video.sink
attr recordingmode sum
attr source packetLength(packetDropped)
attr title "dropped packet lengths, sum"
attr unit b
statistic TsnDumbbellNetwork.server2.app[3].sink droppedPacketLengths:histogram
field count 800
field mean 4000
field stddev 0
field min 4000
field max 4000
field sum 3200000
field sqrsum 12800000000
attr interpolationmode none
attr moduledisplaypath TsnDumbbellNetwork.server2.video.sink
attr recordingmode histogram
attr source packetLength(packetDropped)
attr title "dropped packet lengths"
attr unit b
bin	-inf	0
bin	3999	0
bin	4000	800
bin	4001	0
scalar TsnDumbbellNetwork.server2.app[3].io "packets sent" 0
scalar TsnDumbbellNetwork.server2.app[3].io "packets received" 800
scalar TsnDumbbellNetwork.server2.app[3].io packetReceived:count 800
attr interpolationmode none
attr moduledisplaypath TsnDumbbellNetwork.server2.video.io
attr recordingmode count
attr source packetReceived
attr title "packets received, count"
scalar TsnDumbbellNetwork.server2.app[3].io packetReceived:sum(packetBytes) 400000
attr interpolationmode none
attr moduledisplaypath TsnDumbbellNetwork.server2.video.io
attr recordingmode sum(packetBytes)
attr source packetReceived
attr title "packets received, sum(packetBytes)"
scalar TsnDumbbellNetwork.server2.app[3].io packetSent:count 0
attr interpolationmode none
attr moduledisplaypath TsnDumbbellNetwork.server2.video.io
attr recordingmode count
attr source packetSent
attr title "packets sent, count"
scalar TsnDumbbellNetwork.server2.app[3].io packetSent:sum(packetBytes) 0
attr interpolationmode none
attr moduledisplaypath TsnDumbbellNetwork.server2.video.io
attr recordingmode sum(packetBytes)
attr source packetSent
attr title "packets sent, sum(packetBytes)"

