version 3
run General-0-20240311-16:54:24-224604
attr configname General
attr datetime 20240311-16:54:24
attr datetimef 20240311-165424
attr experiment General
attr inifile omnetpp.ini
attr iterationvars ""
attr iterationvarsd ""
attr iterationvarsf ""
attr measurement ""
attr network v3_mesh
attr processid 224604
attr repetition 0
attr replication #0
attr resultdir results
attr runnumber 0
attr seedset 0
config **.param-recording false
config **.vector-recording false
config image-path /home/levy/workspace/inet/images
config output-scalar-file results/omnetpp.ini-General-#0.sca
config sim-time-limit 500s
config sim-time-limit 500s
config network v3_mesh
config **.Router1.ospf.ospfv3Splitter.ospfv3RoutingConfig "xmldoc(\"config.xml\", \"Devices/Router[@id='Router1']/Routing6/OSPFv3\")"
config **.Router2.ospf.ospfv3Splitter.ospfv3RoutingConfig "xmldoc(\"config.xml\", \"Devices/Router[@id='Router2']/Routing6/OSPFv3\")"
config **.Router3.ospf.ospfv3Splitter.ospfv3RoutingConfig "xmldoc(\"config.xml\", \"Devices/Router[@id='Router3']/Routing6/OSPFv3\")"
config **.Router4.ospf.ospfv3Splitter.ospfv3RoutingConfig "xmldoc(\"config.xml\", \"Devices/Router[@id='Router4']/Routing6/OSPFv3\")"
config **.Router5.ospf.ospfv3Splitter.ospfv3RoutingConfig "xmldoc(\"config.xml\", \"Devices/Router[@id='Router5']/Routing6/OSPFv3\")"
config **.Router6.ospf.ospfv3Splitter.ospfv3RoutingConfig "xmldoc(\"config.xml\", \"Devices/Router[@id='Router6']/Routing6/OSPFv3\")"
config **.Router1.ospf.ospfv3Splitter.ospfv3IntConfig "xmldoc(\"config.xml\", \"Devices/Router[@id='Router1']/Interfaces\")"
config **.Router2.ospf.ospfv3Splitter.ospfv3IntConfig "xmldoc(\"config.xml\", \"Devices/Router[@id='Router2']/Interfaces\")"
config **.Router3.ospf.ospfv3Splitter.ospfv3IntConfig "xmldoc(\"config.xml\", \"Devices/Router[@id='Router3']/Interfaces\")"
config **.Router4.ospf.ospfv3Splitter.ospfv3IntConfig "xmldoc(\"config.xml\", \"Devices/Router[@id='Router4']/Interfaces\")"
config **.Router5.ospf.ospfv3Splitter.ospfv3IntConfig "xmldoc(\"config.xml\", \"Devices/Router[@id='Router5']/Interfaces\")"
config **.Router6.ospf.ospfv3Splitter.ospfv3IntConfig "xmldoc(\"config.xml\", \"Devices/Router[@id='Router6']/Interfaces\")"

scalar v3_mesh.Router1.ethernet pauseSent:count 0
attr recordingmode count
attr title "pause sent, count"
scalar v3_mesh.Router1.ethernet pauseSent:sum 0
attr recordingmode sum
attr title "pause sent, sum"
scalar v3_mesh.Router1.ethernet decapPk:count 574
attr interpolationmode none
attr recordingmode count
attr source decapPk
attr title "packets decapsulated, count"
scalar v3_mesh.Router1.ethernet decapPk:sum(packetBytes) 53908
attr interpolationmode none
attr recordingmode sum(packetBytes)
attr source decapPk
attr title "packets decapsulated, sum(packetBytes)"
scalar v3_mesh.Router1.ethernet encapPk:count 313
attr interpolationmode none
attr recordingmode count
attr source encapPk
attr title "packets encapsulated, count"
scalar v3_mesh.Router1.ethernet encapPk:sum(packetBytes) 28280
attr interpolationmode none
attr recordingmode sum(packetBytes)
attr source encapPk
attr title "packets encapsulated, sum(packetBytes)"
scalar v3_mesh.Router1.lo[0].lo rcvdPkFromHl:count 0
attr interpolationmode none
attr recordingmode count
attr source packetReceivedFromUpper
attr title "packets received from higher layer, count"
scalar v3_mesh.Router1.lo[0].lo rcvdPkFromHl:sum(packetBytes) 0
attr interpolationmode none
attr recordingmode sum(packetBytes)
attr source packetReceivedFromUpper
attr title "packets received from higher layer, sum(packetBytes)"
scalar v3_mesh.Router1.lo[0].lo passedUpPk:count 0
attr interpolationmode none
attr recordingmode count
attr source packetSentToUpper
attr title "packets passed to higher layer, count"
scalar v3_mesh.Router1.lo[0].lo passedUpPk:sum(packetBytes) 0
attr interpolationmode none
attr recordingmode sum(packetBytes)
attr source packetSentToUpper
attr title "packets passed to higher layer, sum(packetBytes)"
scalar v3_mesh.Router1.lo[0] packetDropInterfaceDown:count 0
attr interpolationmode none
attr recordingmode count
attr source packetDropReasonIsInterfaceDown(packetDropped)
attr title "packet drops: interface down, count"
scalar v3_mesh.Router1.lo[0] packetDropInterfaceDown:sum(packetBytes) 0
attr interpolationmode none
attr recordingmode sum(packetBytes)
attr source packetDropReasonIsInterfaceDown(packetDropped)
attr title "packet drops: interface down, sum(packetBytes)"
scalar v3_mesh.Router1.lo[0] packetDropNoCarrier:count 0
attr interpolationmode none
attr recordingmode count
attr source packetDropReasonIsNoCarrier(packetDropped)
attr title "packet drops: no carrier, count"
scalar v3_mesh.Router1.lo[0] packetDropNoCarrier:sum(packetBytes) 0
attr interpolationmode none
attr recordingmode sum(packetBytes)
attr source packetDropReasonIsNoCarrier(packetDropped)
attr title "packet drops: no carrier, sum(packetBytes)"
scalar v3_mesh.Router1.eth[0].queue queueLength:last 0
attr autoWarmupFilter false
attr interpolationmode sample-hold
attr recordingmode last
attr source "warmup(atomic(constant0(packetPushEnded) + count(packetPushStarted) - count(packetPulled) - count(packetRemoved) - count(packetDropped)))"
attr title "queue length, last"
attr unit pk
scalar v3_mesh.Router1.eth[0].queue queueLength:max 6
attr autoWarmupFilter false
attr interpolationmode sample-hold
attr recordingmode max
attr source "warmup(atomic(constant0(packetPushEnded) + count(packetPushStarted) - count(packetPulled) - count(packetRemoved) - count(packetDropped)))"
attr title "queue length, max"
attr unit pk
scalar v3_mesh.Router1.eth[0].queue queueLength:timeavg 2.46576e-06
attr autoWarmupFilter false
attr interpolationmode sample-hold
attr recordingmode timeavg
attr source "warmup(atomic(constant0(packetPushEnded) + count(packetPushStarted) - count(packetPulled) - count(packetRemoved) - count(packetDropped)))"
attr title "queue length, timeavg"
attr unit pk
scalar v3_mesh.Router1.eth[0].queue queueBitLength:last 0
attr autoWarmupFilter false
attr interpolationmode sample-hold
attr recordingmode last
attr source "warmup(atomic(constant0(packetPushEnded) + sum(packetLength(packetPushStarted)) - sum(packetLength(packetPulled)) - sum(packetLength(packetRemoved)) - sum(packetLength(packetDropped))))"
attr title "queue bit length, last"
attr unit b
scalar v3_mesh.Router1.eth[0].queue queueBitLength:max 5824
attr autoWarmupFilter false
attr interpolationmode sample-hold
attr recordingmode max
attr source "warmup(atomic(constant0(packetPushEnded) + sum(packetLength(packetPushStarted)) - sum(packetLength(packetPulled)) - sum(packetLength(packetRemoved)) - sum(packetLength(packetDropped))))"
attr title "queue bit length, max"
attr unit b
scalar v3_mesh.Router1.eth[0].queue queueBitLength:timeavg 0.00226053376
attr autoWarmupFilter false
attr interpolationmode sample-hold
attr recordingmode timeavg
attr source "warmup(atomic(constant0(packetPushEnded) + sum(packetLength(packetPushStarted)) - sum(packetLength(packetPulled)) - sum(packetLength(packetRemoved)) - sum(packetLength(packetDropped))))"
attr title "queue bit length, timeavg"
attr unit b
statistic v3_mesh.Router1.eth[0].queue queueingTime:histogram
field count 190
field mean 6.4888421052632e-06
field stddev 1.2843954529831e-05
field min 0
field max 6.474e-05
field sum 0.00123288
field sqrsum 3.91787584e-08
attr interpolationmode none
attr recordingmode histogram
attr source queueingTime(packetPulled)
attr title "queueing times"
attr unit s
bin	-inf	0
bin	0	129
bin	1e-06	3
bin	2e-06	2
bin	3e-06	0
bin	4e-06	0
bin	5e-06	1
bin	6e-06	2
bin	7e-06	1
bin	8e-06	1
bin	9e-06	11
bin	1e-05	2
bin	1.1e-05	4
bin	1.2e-05	2
bin	1.3e-05	0
bin	1.4e-05	1
bin	1.5e-05	2
bin	1.6e-05	1
bin	1.7e-05	1
bin	1.8e-05	4
bin	1.9e-05	1
bin	2e-05	1
bin	2.1e-05	0
bin	2.2e-05	0
bin	2.3e-05	2
bin	2.4e-05	2
bin	2.5e-05	2
bin	2.6e-05	0
bin	2.7e-05	2
bin	2.8e-05	0
bin	2.9e-05	0
bin	3e-05	0
bin	3.1e-05	0
bin	3.2e-05	0
bin	3.3e-05	0
bin	3.4e-05	0
bin	3.5e-05	2
bin	3.6e-05	2
bin	3.7e-05	1
bin	3.8e-05	0
bin	3.9e-05	0
bin	4e-05	0
bin	4.1e-05	1
bin	4.2e-05	0
bin	4.3e-05	0
bin	4.4e-05	0
bin	4.5e-05	1
bin	4.6e-05	0
bin	4.7e-05	2
bin	4.8e-05	0
bin	4.9e-05	0
bin	5e-05	0
bin	5.1e-05	0
bin	5.2e-05	0
bin	5.3e-05	0
bin	5.4e-05	2
bin	5.5e-05	0
bin	5.6e-05	0
bin	5.7e-05	1
bin	5.8e-05	0
bin	5.9e-05	0
bin	6e-05	0
bin	6.1e-05	0
bin	6.2e-05	0
bin	6.3e-05	0
bin	6.4e-05	1
bin	6.5e-05	0
bin	6.6e-05	0
bin	6.7e-05	0
bin	6.8e-05	0
bin	6.9e-05	0
bin	7e-05	0
bin	7.1e-05	0
bin	7.2e-05	0
bin	7.3e-05	0
bin	7.4e-05	0
bin	7.5e-05	0
bin	7.6e-05	0
bin	7.7e-05	0
bin	7.8e-05	0
bin	7.9e-05	0
bin	8e-05	0
bin	8.1e-05	0
scalar v3_mesh.Router1.eth[0].queue outgoingPackets:count 190
attr recordingmode count
attr source packetPulled
attr title "outgoing packets, count"
attr unit pk
scalar v3_mesh.Router1.eth[0].queue outgoingPacketLengths:sum 164992
attr interpolationmode none
attr recordingmode sum
attr source packetLength(packetPulled)
attr title "outgoing packet lengths, sum"
attr unit b
statistic v3_mesh.Router1.eth[0].queue outgoingPacketLengths:histogram
field count 190
field mean 868.37894736842
field stddev 180.23859430542
field min 688
field max 2448
field sum 164992
field sqrsum 149415424
attr interpolationmode none
attr recordingmode histogram
attr source packetLength(packetPulled)
attr title "outgoing packet lengths"
attr unit b
bin	-inf	0
bin	560	0
bin	600	0
bin	640	0
bin	680	4
bin	720	66
bin	760	0
bin	800	62
bin	840	0
bin	880	7
bin	920	5
bin	960	13
bin	1000	0
bin	1040	18
bin	1080	0
bin	1120	1
bin	1160	7
bin	1200	5
bin	1240	0
bin	1280	0
bin	1320	0
bin	1360	1
bin	1400	0
bin	1440	0
bin	1480	0
bin	1520	0
bin	1560	0
bin	1600	0
bin	1640	0
bin	1680	0
bin	1720	0
bin	1760	0
bin	1800	0
bin	1840	0
bin	1880	0
bin	1920	0
bin	1960	0
bin	2000	0
bin	2040	0
bin	2080	0
bin	2120	0
bin	2160	0
bin	2200	0
bin	2240	0
bin	2280	0
bin	2320	0
bin	2360	0
bin	2400	0
bin	2440	1
bin	2480	0
statistic v3_mesh.Router1.eth[0].queue flowQueueingTime:histogram
field count 0
field mean -nan
field stddev nan
field min nan
field max nan
field sum 0
field sqrsum 0
attr interpolationmode none
attr recordingmode histogram
attr source queueingTime(demuxFlow(packetPulled))
attr title "flow queueing times"
attr unit s
bin	-inf	0
bin	0	0
bin	1	0
scalar v3_mesh.Router1.eth[0].queue incomingPackets:count 190
attr recordingmode count
attr source packetPushStarted
attr title "incoming packets, count"
attr unit pk
scalar v3_mesh.Router1.eth[0].queue incomingPacketLengths:sum 164992
attr interpolationmode none
attr recordingmode sum
attr source packetLength(packetPushStarted)
attr title "incoming packet lengths, sum"
attr unit b
statistic v3_mesh.Router1.eth[0].queue incomingPacketLengths:histogram
field count 190
field mean 868.37894736842
field stddev 180.23859430542
field min 688
field max 2448
field sum 164992
field sqrsum 149415424
attr interpolationmode none
attr recordingmode histogram
attr source packetLength(packetPushStarted)
attr title "incoming packet lengths"
attr unit b
bin	-inf	0
bin	560	0
bin	600	0
bin	640	0
bin	680	4
bin	720	66
bin	760	0
bin	800	62
bin	840	0
bin	880	7
bin	920	5
bin	960	13
bin	1000	0
bin	1040	18
bin	1080	0
bin	1120	1
bin	1160	7
bin	1200	5
bin	1240	0
bin	1280	0
bin	1320	0
bin	1360	1
bin	1400	0
bin	1440	0
bin	1480	0
bin	1520	0
bin	1560	0
bin	1600	0
bin	1640	0
bin	1680	0
bin	1720	0
bin	1760	0
bin	1800	0
bin	1840	0
bin	1880	0
bin	1920	0
bin	1960	0
bin	2000	0
bin	2040	0
bin	2080	0
bin	2120	0
bin	2160	0
bin	2200	0
bin	2240	0
bin	2280	0
bin	2320	0
bin	2360	0
bin	2400	0
bin	2440	1
bin	2480	0
scalar v3_mesh.Router1.eth[0].queue droppedPacketsQueueOverflow:count 0
attr interpolationmode none
attr recordingmode count
attr source packetDropReasonIsQueueOverflow(packetDropped)
attr title "dropped packets: queue overflow, count"
attr unit pk
scalar v3_mesh.Router1.eth[0].queue droppedPacketLengthsQueueOverflow:sum 0
attr interpolationmode none
attr recordingmode sum
attr source packetLength(packetDropReasonIsQueueOverflow(packetDropped))
attr title "dropped packet lengths: queue overflow, sum"
attr unit b
scalar v3_mesh.Router1.eth[0].mac "simulated time" 500
scalar v3_mesh.Router1.eth[0].mac full-duplex 1
scalar v3_mesh.Router1.eth[0].mac "frames/sec sent" 0.38
scalar v3_mesh.Router1.eth[0].mac "frames/sec rcvd" 0.864
scalar v3_mesh.Router1.eth[0].mac "bits/sec sent" 329.984
scalar v3_mesh.Router1.eth[0].mac "bits/sec rcvd" 762.304
scalar v3_mesh.Router1.eth[0].mac "rx channel idle (%)" 99.9991824
scalar v3_mesh.Router1.eth[0].mac "rx channel utilization (%)" 0.0008176
scalar v3_mesh.Router1.eth[0].mac rxPausePkUnits:count 0
attr interpolationmode none
attr recordingmode count
attr title "pause units received, count"
scalar v3_mesh.Router1.eth[0].mac rxPausePkUnits:sum 0
attr interpolationmode none
attr recordingmode sum
attr title "pause units received, sum"
scalar v3_mesh.Router1.eth[0].mac txPausePkUnits:count 0
attr interpolationmode none
attr recordingmode count
attr title "pause units sent, count"
scalar v3_mesh.Router1.eth[0].mac txPausePkUnits:sum 0
attr interpolationmode none
attr recordingmode sum
attr title "pause units sent, sum"
scalar v3_mesh.Router1.eth[0].mac rxPkOk:count 432
attr interpolationmode none
attr recordingmode count
attr source rxPkOk
attr title "packets received OK, count"
scalar v3_mesh.Router1.eth[0].mac rxPkOk:sum(packetBytes) 47644
attr interpolationmode none
attr recordingmode sum(packetBytes)
attr source rxPkOk
attr title "packets received OK, sum(packetBytes)"
statistic v3_mesh.Router1.eth[0].mac throughput:histogram
field count 5000
field mean 354.304
field stddev 8740.0477322756
field min 0
field max 381120
field sum 1771520
field sqrsum 382493440000
attr interpolationmode linear
attr recordingmode histogram
attr source throughput(transmissionEnded)
attr title throughput
attr unit bps
bin	-inf	0
bin	0	4943
bin	5800	50
bin	11600	1
bin	17400	0
bin	23200	0
bin	29000	0
bin	34800	0
bin	40600	0
bin	46400	0
bin	52200	0
bin	58000	0
bin	63800	0
bin	69600	1
bin	75400	0
bin	81200	0
bin	87000	0
bin	92800	0
bin	98600	1
bin	104400	0
bin	110200	0
bin	116000	0
bin	121800	0
bin	127600	1
bin	133400	0
bin	139200	0
bin	145000	0
bin	150800	0
bin	156600	0
bin	162400	0
bin	168200	0
bin	174000	0
bin	179800	0
bin	185600	0
bin	191400	0
bin	197200	0
bin	203000	0
bin	208800	0
bin	214600	0
bin	220400	0
bin	226200	0
bin	232000	0
bin	237800	0
bin	243600	0
bin	249400	0
bin	255200	0
bin	261000	0
bin	266800	0
bin	272600	0
bin	278400	1
bin	284200	0
bin	290000	0
bin	295800	0
bin	301600	0
bin	307400	0
bin	313200	0
bin	319000	0
bin	324800	0
bin	330600	0
bin	336400	0
bin	342200	1
bin	348000	0
bin	353800	0
bin	359600	0
bin	365400	0
bin	371200	0
bin	377000	1
bin	382800	0
statistic v3_mesh.Router1.eth[0].mac utilization:histogram
field count 5000
field mean 0.000354304
field stddev 0.0087400477322756
field min 0
field max 0.38112
field sum 1.77152
field sqrsum 0.38249344
attr interpolationmode linear
attr recordingmode histogram
attr source "100 * utilization(count(transmissionStarted) - count(transmissionEnded))"
attr title utilization
attr unit %
bin	-inf	0
bin	0	4943
bin	0.0058	50
bin	0.0116	1
bin	0.0174	0
bin	0.0232	0
bin	0.029	0
bin	0.0348	0
bin	0.0406	0
bin	0.0464	0
bin	0.0522	0
bin	0.058	0
bin	0.0638	0
bin	0.0696	1
bin	0.0754	0
bin	0.0812	0
bin	0.087	0
bin	0.0928	0
bin	0.0986	1
bin	0.1044	0
bin	0.1102	0
bin	0.116	0
bin	0.1218	0
bin	0.1276	1
bin	0.1334	0
bin	0.1392	0
bin	0.145	0
bin	0.1508	0
bin	0.1566	0
bin	0.1624	0
bin	0.1682	0
bin	0.174	0
bin	0.1798	0
bin	0.1856	0
bin	0.1914	0
bin	0.1972	0
bin	0.203	0
bin	0.2088	0
bin	0.2146	0
bin	0.2204	0
bin	0.2262	0
bin	0.232	0
bin	0.2378	0
bin	0.2436	0
bin	0.2494	0
bin	0.2552	0
bin	0.261	0
bin	0.2668	0
bin	0.2726	0
bin	0.2784	1
bin	0.2842	0
bin	0.29	0
bin	0.2958	0
bin	0.3016	0
bin	0.3074	0
bin	0.3132	0
bin	0.319	0
bin	0.3248	0
bin	0.3306	0
bin	0.3364	0
bin	0.3422	1
bin	0.348	0
bin	0.3538	0
bin	0.3596	0
bin	0.3654	0
bin	0.3712	0
bin	0.377	1
bin	0.3828	0
scalar v3_mesh.Router1.eth[0].mac txPk:count 190
attr interpolationmode none
attr recordingmode count
attr source packetSentToLower
attr title "packets transmitted, count"
scalar v3_mesh.Router1.eth[0].mac txPk:sum(packetBytes) 20624
attr interpolationmode none
attr recordingmode sum(packetBytes)
attr source packetSentToLower
attr title "packets transmitted, sum(packetBytes)"
scalar v3_mesh.Router1.eth[0].mac packetReceivedFromUpper:count 190
attr interpolationmode none
attr recordingmode count
attr source packetReceivedFromUpper
attr title "packet bytes from higher layer, count"
scalar v3_mesh.Router1.eth[0].mac packetReceivedFromUpper:sum(packetBytes) 20624
attr interpolationmode none
attr recordingmode sum(packetBytes)
attr source packetReceivedFromUpper
attr title "packet bytes from higher layer, sum(packetBytes)"
scalar v3_mesh.Router1.eth[0].mac passedUpPk:count 432
attr interpolationmode none
attr recordingmode count
attr source packetSentToUpper
attr title "packets passed to higher layer, count"
scalar v3_mesh.Router1.eth[0].mac passedUpPk:sum(packetBytes) 47644
attr interpolationmode none
attr recordingmode sum(packetBytes)
attr source packetSentToUpper
attr title "packets passed to higher layer, sum(packetBytes)"
scalar v3_mesh.Router1.eth[0].mac packetDropIncorrectlyReceived:count 0
attr interpolationmode none
attr recordingmode count
attr source packetDropReasonIsIncorrectlyReceived(packetDropped)
attr title "packet drop: incorrectly received, count"
scalar v3_mesh.Router1.eth[0].mac packetDropIncorrectlyReceived:sum(packetBytes) 0
attr interpolationmode none
attr recordingmode sum(packetBytes)
attr source packetDropReasonIsIncorrectlyReceived(packetDropped)
attr title "packet drop: incorrectly received, sum(packetBytes)"
scalar v3_mesh.Router1.eth[0].mac packetDropInterfaceDown:count 0
attr interpolationmode none
attr recordingmode count
attr source packetDropReasonIsInterfaceDown(packetDropped)
attr title "packet drop: interface down, count"
scalar v3_mesh.Router1.eth[0].mac packetDropInterfaceDown:sum(packetBytes) 0
attr interpolationmode none
attr recordingmode sum(packetBytes)
attr source packetDropReasonIsInterfaceDown(packetDropped)
attr title "packet drop: interface down, sum(packetBytes)"
scalar v3_mesh.Router1.eth[0].mac packetDropNotAddressedToUs:count 0
attr interpolationmode none
attr recordingmode count
attr source packetDropReasonIsNotAddressedToUs(packetDropped)
attr title "packet drop: not addressed to us, count"
scalar v3_mesh.Router1.eth[0].mac packetDropNotAddressedToUs:sum(packetBytes) 0
attr interpolationmode none
attr recordingmode sum(packetBytes)
attr source packetDropReasonIsNotAddressedToUs(packetDropped)
attr title "packet drop: not addressed to us, sum(packetBytes)"
scalar v3_mesh.Router1.eth[0] packetDropInterfaceDown:count 0
attr interpolationmode none
attr recordingmode count
attr source packetDropReasonIsInterfaceDown(packetDropped)
attr title "packet drops: interface down, count"
scalar v3_mesh.Router1.eth[0] packetDropInterfaceDown:sum(packetBytes) 0
attr interpolationmode none
attr recordingmode sum(packetBytes)
attr source packetDropReasonIsInterfaceDown(packetDropped)
attr title "packet drops: interface down, sum(packetBytes)"
scalar v3_mesh.Router1.eth[0] packetDropNoCarrier:count 0
attr interpolationmode none
attr recordingmode count
attr source packetDropReasonIsNoCarrier(packetDropped)
attr title "packet drops: no carrier, count"
scalar v3_mesh.Router1.eth[0] packetDropNoCarrier:sum(packetBytes) 0
attr interpolationmode none
attr recordingmode sum(packetBytes)
attr source packetDropReasonIsNoCarrier(packetDropped)
attr title "packet drops: no carrier, sum(packetBytes)"
scalar v3_mesh.Router1.eth[1].queue queueLength:last 0
attr autoWarmupFilter false
attr interpolationmode sample-hold
attr recordingmode last
attr source "warmup(atomic(constant0(packetPushEnded) + count(packetPushStarted) - count(packetPulled) - count(packetRemoved) - count(packetDropped)))"
attr title "queue length, last"
attr unit pk
scalar v3_mesh.Router1.eth[1].queue queueLength:max 13
attr autoWarmupFilter false
attr interpolationmode sample-hold
attr recordingmode max
attr source "warmup(atomic(constant0(packetPushEnded) + count(packetPushStarted) - count(packetPulled) - count(packetRemoved) - count(packetDropped)))"
attr title "queue length, max"
attr unit pk
scalar v3_mesh.Router1.eth[1].queue queueLength:timeavg 3.95872e-06
attr autoWarmupFilter false
attr interpolationmode sample-hold
attr recordingmode timeavg
attr source "warmup(atomic(constant0(packetPushEnded) + count(packetPushStarted) - count(packetPulled) - count(packetRemoved) - count(packetDropped)))"
attr title "queue length, timeavg"
attr unit pk
scalar v3_mesh.Router1.eth[1].queue queueBitLength:last 0
attr autoWarmupFilter false
attr interpolationmode sample-hold
attr recordingmode last
attr source "warmup(atomic(constant0(packetPushEnded) + sum(packetLength(packetPushStarted)) - sum(packetLength(packetPulled)) - sum(packetLength(packetRemoved)) - sum(packetLength(packetDropped))))"
attr title "queue bit length, last"
attr unit b
scalar v3_mesh.Router1.eth[1].queue queueBitLength:max 9776
attr autoWarmupFilter false
attr interpolationmode sample-hold
attr recordingmode max
attr source "warmup(atomic(constant0(packetPushEnded) + sum(packetLength(packetPushStarted)) - sum(packetLength(packetPulled)) - sum(packetLength(packetRemoved)) - sum(packetLength(packetDropped))))"
attr title "queue bit length, max"
attr unit b
scalar v3_mesh.Router1.eth[1].queue queueBitLength:timeavg 0.00329328
attr autoWarmupFilter false
attr interpolationmode sample-hold
attr recordingmode timeavg
attr source "warmup(atomic(constant0(packetPushEnded) + sum(packetLength(packetPushStarted)) - sum(packetLength(packetPulled)) - sum(packetLength(packetRemoved)) - sum(packetLength(packetDropped))))"
attr title "queue bit length, timeavg"
attr unit b
statistic v3_mesh.Router1.eth[1].queue queueingTime:histogram
field count 123
field mean 1.6092357723577e-05
field stddev 2.9350984290511e-05
field min 0
field max 0.00011722
field sum 0.00197936
field sqrsum 1.369531632e-07
attr interpolationmode none
attr recordingmode histogram
attr source queueingTime(packetPulled)
attr title "queueing times"
attr unit s
bin	-inf	0
bin	0	84
bin	2e-06	0
bin	4e-06	0
bin	6e-06	1
bin	8e-06	2
bin	1e-05	0
bin	1.2e-05	2
bin	1.4e-05	0
bin	1.6e-05	1
bin	1.8e-05	3
bin	2e-05	0
bin	2.2e-05	2
bin	2.4e-05	0
bin	2.6e-05	2
bin	2.8e-05	0
bin	3e-05	0
bin	3.2e-05	0
bin	3.4e-05	3
bin	3.6e-05	2
bin	3.8e-05	0
bin	4e-05	0
bin	4.2e-05	0
bin	4.4e-05	2
bin	4.6e-05	1
bin	4.8e-05	0
bin	5e-05	0
bin	5.2e-05	1
bin	5.4e-05	1
bin	5.6e-05	0
bin	5.8e-05	1
bin	6e-05	0
bin	6.2e-05	1
bin	6.4e-05	0
bin	6.6e-05	0
bin	6.8e-05	0
bin	7e-05	1
bin	7.2e-05	0
bin	7.4e-05	3
bin	7.6e-05	0
bin	7.8e-05	2
bin	8e-05	2
bin	8.2e-05	0
bin	8.4e-05	1
bin	8.6e-05	0
bin	8.8e-05	1
bin	9e-05	1
bin	9.2e-05	0
bin	9.4e-05	0
bin	9.6e-05	0
bin	9.8e-05	1
bin	0.0001	0
bin	0.000102	0
bin	0.000104	0
bin	0.000106	0
bin	0.000108	1
bin	0.00011	0
bin	0.000112	0
bin	0.000114	0
bin	0.000116	1
bin	0.000118	0
bin	0.00012	0
bin	0.000122	0
bin	0.000124	0
bin	0.000126	0
bin	0.000128	0
bin	0.00013	0
bin	0.000132	0
bin	0.000134	0
bin	0.000136	0
bin	0.000138	0
bin	0.00014	0
bin	0.000142	0
bin	0.000144	0
bin	0.000146	0
bin	0.000148	0
scalar v3_mesh.Router1.eth[1].queue outgoingPackets:count 123
attr recordingmode count
attr source packetPulled
attr title "outgoing packets, count"
attr unit pk
scalar v3_mesh.Router1.eth[1].queue outgoingPacketLengths:sum 106320
attr interpolationmode none
attr recordingmode sum
attr source packetLength(packetPulled)
attr title "outgoing packet lengths, sum"
attr unit b
statistic v3_mesh.Router1.eth[1].queue outgoingPacketLengths:histogram
field count 123
field mean 864.39024390244
field stddev 259.78725956426
field min 688
field max 3248
field sum 106320
field sqrsum 100135680
attr interpolationmode none
attr recordingmode histogram
attr source packetLength(packetPulled)
attr title "outgoing packet lengths"
attr unit b
bin	-inf	0
bin	0	0
bin	50	0
bin	100	0
bin	150	0
bin	200	0
bin	250	0
bin	300	0
bin	350	0
bin	400	0
bin	450	0
bin	500	0
bin	550	0
bin	600	0
bin	650	2
bin	700	4
bin	750	78
bin	800	6
bin	850	2
bin	900	6
bin	950	6
bin	1000	0
bin	1050	11
bin	1100	1
bin	1150	1
bin	1200	4
bin	1250	0
bin	1300	0
bin	1350	0
bin	1400	0
bin	1450	0
bin	1500	0
bin	1550	1
bin	1600	0
bin	1650	0
bin	1700	0
bin	1750	0
bin	1800	0
bin	1850	0
bin	1900	0
bin	1950	0
bin	2000	0
bin	2050	0
bin	2100	0
bin	2150	0
bin	2200	0
bin	2250	0
bin	2300	0
bin	2350	0
bin	2400	0
bin	2450	0
bin	2500	0
bin	2550	0
bin	2600	0
bin	2650	0
bin	2700	0
bin	2750	0
bin	2800	0
bin	2850	0
bin	2900	0
bin	2950	0
bin	3000	0
bin	3050	0
bin	3100	0
bin	3150	0
bin	3200	1
bin	3250	0
bin	3300	0
bin	3350	0
bin	3400	0
bin	3450	0
bin	3500	0
bin	3550	0
bin	3600	0
bin	3650	0
bin	3700	0
bin	3750	0
bin	3800	0
bin	3850	0
bin	3900	0
statistic v3_mesh.Router1.eth[1].queue flowQueueingTime:histogram
field count 0
field mean -nan
field stddev nan
field min nan
field max nan
field sum 0
field sqrsum 0
attr interpolationmode none
attr recordingmode histogram
attr source queueingTime(demuxFlow(packetPulled))
attr title "flow queueing times"
attr unit s
bin	-inf	0
bin	0	0
bin	1	0
scalar v3_mesh.Router1.eth[1].queue incomingPackets:count 123
attr recordingmode count
attr source packetPushStarted
attr title "incoming packets, count"
attr unit pk
scalar v3_mesh.Router1.eth[1].queue incomingPacketLengths:sum 106320
attr interpolationmode none
attr recordingmode sum
attr source packetLength(packetPushStarted)
attr title "incoming packet lengths, sum"
attr unit b
statistic v3_mesh.Router1.eth[1].queue incomingPacketLengths:histogram
field count 123
field mean 864.39024390244
field stddev 259.78725956426
field min 688
field max 3248
field sum 106320
field sqrsum 100135680
attr interpolationmode none
attr recordingmode histogram
attr source packetLength(packetPushStarted)
attr title "incoming packet lengths"
attr unit b
bin	-inf	0
bin	0	0
bin	50	0
bin	100	0
bin	150	0
bin	200	0
bin	250	0
bin	300	0
bin	350	0
bin	400	0
bin	450	0
bin	500	0
bin	550	0
bin	600	0
bin	650	2
bin	700	4
bin	750	78
bin	800	6
bin	850	2
bin	900	6
bin	950	6
bin	1000	0
bin	1050	11
bin	1100	1
bin	1150	1
bin	1200	4
bin	1250	0
bin	1300	0
bin	1350	0
bin	1400	0
bin	1450	0
bin	1500	0
bin	1550	1
bin	1600	0
bin	1650	0
bin	1700	0
bin	1750	0
bin	1800	0
bin	1850	0
bin	1900	0
bin	1950	0
bin	2000	0
bin	2050	0
bin	2100	0
bin	2150	0
bin	2200	0
bin	2250	0
bin	2300	0
bin	2350	0
bin	2400	0
bin	2450	0
bin	2500	0
bin	2550	0
bin	2600	0
bin	2650	0
bin	2700	0
bin	2750	0
bin	2800	0
bin	2850	0
bin	2900	0
bin	2950	0
bin	3000	0
bin	3050	0
bin	3100	0
bin	3150	0
bin	3200	1
bin	3250	0
bin	3300	0
bin	3350	0
bin	3400	0
bin	3450	0
bin	3500	0
bin	3550	0
bin	3600	0
bin	3650	0
bin	3700	0
bin	3750	0
bin	3800	0
bin	3850	0
bin	3900	0
scalar v3_mesh.Router1.eth[1].queue droppedPacketsQueueOverflow:count 0
attr interpolationmode none
attr recordingmode count
attr source packetDropReasonIsQueueOverflow(packetDropped)
attr title "dropped packets: queue overflow, count"
attr unit pk
scalar v3_mesh.Router1.eth[1].queue droppedPacketLengthsQueueOverflow:sum 0
attr interpolationmode none
attr recordingmode sum
attr source packetLength(packetDropReasonIsQueueOverflow(packetDropped))
attr title "dropped packet lengths: queue overflow, sum"
attr unit b
scalar v3_mesh.Router1.eth[1].mac "simulated time" 500
scalar v3_mesh.Router1.eth[1].mac full-duplex 1
scalar v3_mesh.Router1.eth[1].mac "frames/sec sent" 0.246
scalar v3_mesh.Router1.eth[1].mac "frames/sec rcvd" 0.284
scalar v3_mesh.Router1.eth[1].mac "bits/sec sent" 212.64
scalar v3_mesh.Router1.eth[1].mac "bits/sec rcvd" 265.536
scalar v3_mesh.Router1.eth[1].mac "rx channel idle (%)" 99.999716288
scalar v3_mesh.Router1.eth[1].mac "rx channel utilization (%)" 0.000283712
scalar v3_mesh.Router1.eth[1].mac rxPausePkUnits:count 0
attr interpolationmode none
attr recordingmode count
attr title "pause units received, count"
scalar v3_mesh.Router1.eth[1].mac rxPausePkUnits:sum 0
attr interpolationmode none
attr recordingmode sum
attr title "pause units received, sum"
scalar v3_mesh.Router1.eth[1].mac txPausePkUnits:count 0
attr interpolationmode none
attr recordingmode count
attr title "pause units sent, count"
scalar v3_mesh.Router1.eth[1].mac txPausePkUnits:sum 0
attr interpolationmode none
attr recordingmode sum
attr title "pause units sent, sum"
scalar v3_mesh.Router1.eth[1].mac rxPkOk:count 142
attr interpolationmode none
attr recordingmode count
attr source rxPkOk
attr title "packets received OK, count"
scalar v3_mesh.Router1.eth[1].mac rxPkOk:sum(packetBytes) 16596
attr interpolationmode none
attr recordingmode sum(packetBytes)
attr source rxPkOk
attr title "packets received OK, sum(packetBytes)"
statistic v3_mesh.Router1.eth[1].mac throughput:histogram
field count 5000
field mean 228.384
field stddev 4524.7679734531
field min 0
field max 229280
field sum 1141920
field sqrsum 102607948800
attr interpolationmode linear
attr recordingmode histogram
attr source throughput(transmissionEnded)
attr title throughput
attr unit bps
bin	-inf	0
bin	0	4938
bin	5400	52
bin	10800	3
bin	16200	1
bin	21600	1
bin	27000	0
bin	32400	0
bin	37800	1
bin	43200	0
bin	48600	0
bin	54000	0
bin	59400	0
bin	64800	0
bin	70200	0
bin	75600	0
bin	81000	0
bin	86400	0
bin	91800	1
bin	97200	0
bin	102600	1
bin	108000	0
bin	113400	0
bin	118800	0
bin	124200	0
bin	129600	0
bin	135000	0
bin	140400	0
bin	145800	0
bin	151200	1
bin	156600	0
bin	162000	0
bin	167400	0
bin	172800	0
bin	178200	0
bin	183600	0
bin	189000	0
bin	194400	0
bin	199800	0
bin	205200	0
bin	210600	0
bin	216000	0
bin	221400	0
bin	226800	1
bin	232200	0
statistic v3_mesh.Router1.eth[1].mac utilization:histogram
field count 5000
field mean 0.000228384
field stddev 0.0045247679734531
field min 0
field max 0.22928
field sum 1.14192
field sqrsum 0.1026079488
attr interpolationmode linear
attr recordingmode histogram
attr source "100 * utilization(count(transmissionStarted) - count(transmissionEnded))"
attr title utilization
attr unit %
bin	-inf	0
bin	0	4938
bin	0.0054	52
bin	0.0108	3
bin	0.0162	1
bin	0.0216	1
bin	0.027	0
bin	0.0324	0
bin	0.0378	1
bin	0.0432	0
bin	0.0486	0
bin	0.054	0
bin	0.0594	0
bin	0.0648	0
bin	0.0702	0
bin	0.0756	0
bin	0.081	0
bin	0.0864	0
bin	0.0918	1
bin	0.0972	0
bin	0.1026	1
bin	0.108	0
bin	0.1134	0
bin	0.1188	0
bin	0.1242	0
bin	0.1296	0
bin	0.135	0
bin	0.1404	0
bin	0.1458	0
bin	0.1512	1
bin	0.1566	0
bin	0.162	0
bin	0.1674	0
bin	0.1728	0
bin	0.1782	0
bin	0.1836	0
bin	0.189	0
bin	0.1944	0
bin	0.1998	0
bin	0.2052	0
bin	0.2106	0
bin	0.216	0
bin	0.2214	0
bin	0.2268	1
bin	0.2322	0
scalar v3_mesh.Router1.eth[1].mac txPk:count 123
attr interpolationmode none
attr recordingmode count
attr source packetSentToLower
attr title "packets transmitted, count"
scalar v3_mesh.Router1.eth[1].mac txPk:sum(packetBytes) 13290
attr interpolationmode none
attr recordingmode sum(packetBytes)
attr source packetSentToLower
attr title "packets transmitted, sum(packetBytes)"
scalar v3_mesh.Router1.eth[1].mac packetReceivedFromUpper:count 123
attr interpolationmode none
attr recordingmode count
attr source packetReceivedFromUpper
attr title "packet bytes from higher layer, count"
scalar v3_mesh.Router1.eth[1].mac packetReceivedFromUpper:sum(packetBytes) 13290
attr interpolationmode none
attr recordingmode sum(packetBytes)
attr source packetReceivedFromUpper
attr title "packet bytes from higher layer, sum(packetBytes)"
scalar v3_mesh.Router1.eth[1].mac passedUpPk:count 142
attr interpolationmode none
attr recordingmode count
attr source packetSentToUpper
attr title "packets passed to higher layer, count"
scalar v3_mesh.Router1.eth[1].mac passedUpPk:sum(packetBytes) 16596
attr interpolationmode none
attr recordingmode sum(packetBytes)
attr source packetSentToUpper
attr title "packets passed to higher layer, sum(packetBytes)"
scalar v3_mesh.Router1.eth[1].mac packetDropIncorrectlyReceived:count 0
attr interpolationmode none
attr recordingmode count
attr source packetDropReasonIsIncorrectlyReceived(packetDropped)
attr title "packet drop: incorrectly received, count"
scalar v3_mesh.Router1.eth[1].mac packetDropIncorrectlyReceived:sum(packetBytes) 0
attr interpolationmode none
attr recordingmode sum(packetBytes)
attr source packetDropReasonIsIncorrectlyReceived(packetDropped)
attr title "packet drop: incorrectly received, sum(packetBytes)"
scalar v3_mesh.Router1.eth[1].mac packetDropInterfaceDown:count 0
attr interpolationmode none
attr recordingmode count
attr source packetDropReasonIsInterfaceDown(packetDropped)
attr title "packet drop: interface down, count"
scalar v3_mesh.Router1.eth[1].mac packetDropInterfaceDown:sum(packetBytes) 0
attr interpolationmode none
attr recordingmode sum(packetBytes)
attr source packetDropReasonIsInterfaceDown(packetDropped)
attr title "packet drop: interface down, sum(packetBytes)"
scalar v3_mesh.Router1.eth[1].mac packetDropNotAddressedToUs:count 0
attr interpolationmode none
attr recordingmode count
attr source packetDropReasonIsNotAddressedToUs(packetDropped)
attr title "packet drop: not addressed to us, count"
scalar v3_mesh.Router1.eth[1].mac packetDropNotAddressedToUs:sum(packetBytes) 0
attr interpolationmode none
attr recordingmode sum(packetBytes)
attr source packetDropReasonIsNotAddressedToUs(packetDropped)
attr title "packet drop: not addressed to us, sum(packetBytes)"
scalar v3_mesh.Router1.eth[1] packetDropInterfaceDown:count 0
attr interpolationmode none
attr recordingmode count
attr source packetDropReasonIsInterfaceDown(packetDropped)
attr title "packet drops: interface down, count"
scalar v3_mesh.Router1.eth[1] packetDropInterfaceDown:sum(packetBytes) 0
attr interpolationmode none
attr recordingmode sum(packetBytes)
attr source packetDropReasonIsInterfaceDown(packetDropped)
attr title "packet drops: interface down, sum(packetBytes)"
scalar v3_mesh.Router1.eth[1] packetDropNoCarrier:count 0
attr interpolationmode none
attr recordingmode count
attr source packetDropReasonIsNoCarrier(packetDropped)
attr title "packet drops: no carrier, count"
scalar v3_mesh.Router1.eth[1] packetDropNoCarrier:sum(packetBytes) 0
attr interpolationmode none
attr recordingmode sum(packetBytes)
attr source packetDropReasonIsNoCarrier(packetDropped)
attr title "packet drops: no carrier, sum(packetBytes)"
scalar v3_mesh.Router1.ipv4.ip packetDropAddressResolutionFailed:count 0
attr interpolationmode none
attr recordingmode count
attr source packetDropReasonIsAddressResolutionFailed(packetDropped)
attr title "packet drop: address resolution failed, count"
scalar v3_mesh.Router1.ipv4.ip packetDropAddressResolutionFailed:sum(packetBytes) 0
attr interpolationmode none
attr recordingmode sum(packetBytes)
attr source packetDropReasonIsAddressResolutionFailed(packetDropped)
attr title "packet drop: address resolution failed, sum(packetBytes)"
scalar v3_mesh.Router1.ipv4.ip packetDropHopLimitReached:count 0
attr interpolationmode none
attr recordingmode count
attr source packetDropReasonIsHopLimitReached(packetDropped)
attr title "packet drop: hop limit reached, count"
scalar v3_mesh.Router1.ipv4.ip packetDropHopLimitReached:sum(packetBytes) 0
attr interpolationmode none
attr recordingmode sum(packetBytes)
attr source packetDropReasonIsHopLimitReached(packetDropped)
attr title "packet drop: hop limit reached, sum(packetBytes)"
scalar v3_mesh.Router1.ipv4.ip packetDropForwardingDisabled:count 0
attr interpolationmode none
attr recordingmode count
attr source packetDropReasonIsForwardingDisabled(packetDropped)
attr title "packet drop: forwarding disabled, count"
scalar v3_mesh.Router1.ipv4.ip packetDropForwardingDisabled:sum(packetBytes) 0
attr interpolationmode none
attr recordingmode sum(packetBytes)
attr source packetDropReasonIsForwardingDisabled(packetDropped)
attr title "packet drop: forwarding disabled, sum(packetBytes)"
scalar v3_mesh.Router1.ipv4.ip packetDropLifetimeExpired:count 0
attr interpolationmode none
attr recordingmode count
attr source packetDropReasonIsLifetimeExpired(packetDropped)
attr title "packet drop: lifetime expired, count"
scalar v3_mesh.Router1.ipv4.ip packetDropLifetimeExpired:sum(packetBytes) 0
attr interpolationmode none
attr recordingmode sum(packetBytes)
attr source packetDropReasonIsLifetimeExpired(packetDropped)
attr title "packet drop: lifetime expired, sum(packetBytes)"
scalar v3_mesh.Router1.ipv4.ip packetDropNoInterfaceFound:count 0
attr interpolationmode none
attr recordingmode count
attr source packetDropReasonIsNoInterfaceFound(packetDropped)
attr title "packet drop: no interface found, count"
scalar v3_mesh.Router1.ipv4.ip packetDropNoInterfaceFound:sum(packetBytes) 0
attr interpolationmode none
attr recordingmode sum(packetBytes)
attr source packetDropReasonIsNoInterfaceFound(packetDropped)
attr title "packet drop: no interface found, sum(packetBytes)"
scalar v3_mesh.Router1.ipv4.ip packetDropNoRouteFound:count 0
attr interpolationmode none
attr recordingmode count
attr source packetDropReasonIsNoRouteFound(packetDropped)
attr title "packet drop: no route found, count"
scalar v3_mesh.Router1.ipv4.ip packetDropNoRouteFound:sum(packetBytes) 0
attr interpolationmode none
attr recordingmode sum(packetBytes)
attr source packetDropReasonIsNoRouteFound(packetDropped)
attr title "packet drop: no route found, sum(packetBytes)"
scalar v3_mesh.Router1.ipv4.ip packetDropUndefined:count 0
attr interpolationmode none
attr recordingmode count
attr source packetDropReasonIsUndefined(packetDropped)
attr title "packet drop: undefined, count"
scalar v3_mesh.Router1.ipv4.ip packetDropUndefined:sum(packetBytes) 0
attr interpolationmode none
attr recordingmode sum(packetBytes)
attr source packetDropReasonIsUndefined(packetDropped)
attr title "packet drop: undefined, sum(packetBytes)"
scalar v3_mesh.Router1.ipv4.arp arpResolutionFailed:count 0
attr recordingmode count
attr title "ARP failed resolutions, count"
scalar v3_mesh.Router1.ipv4.arp arpResolutionCompleted:count 0
attr recordingmode count
attr title "ARP completed resolutions, count"
scalar v3_mesh.Router1.ipv4.arp arpResolutionInitiated:count 0
attr recordingmode count
attr title "ARP initiated resolutions, count"
scalar v3_mesh.Router1.ipv4.arp arpReplySent:count 0
attr recordingmode count
attr source arpReplySent
attr title "ARP replies sent, count"
scalar v3_mesh.Router1.ipv4.arp arpReplySent:sum(packetBytes) 0
attr recordingmode sum(packetBytes)
attr source arpReplySent
attr title "ARP replies sent, sum(packetBytes)"
scalar v3_mesh.Router1.ipv4.arp arpRequestSent:count 0
attr recordingmode count
attr source arpRequestSent
attr title "ARP request sent, count"
scalar v3_mesh.Router1.ipv4.arp arpRequestSent:sum(packetBytes) 0
attr recordingmode sum(packetBytes)
attr source arpRequestSent
attr title "ARP request sent, sum(packetBytes)"
scalar v3_mesh.Router1.ipv6.neighbourDiscovery startDad:count 0
attr recordingmode count
attr title "DAD started, count"
scalar v3_mesh.Router2.ethernet pauseSent:count 0
attr recordingmode count
attr title "pause sent, count"
scalar v3_mesh.Router2.ethernet pauseSent:sum 0
attr recordingmode sum
attr title "pause sent, sum"
scalar v3_mesh.Router2.ethernet decapPk:count 669
attr interpolationmode none
attr recordingmode count
attr source decapPk
attr title "packets decapsulated, count"
scalar v3_mesh.Router2.ethernet decapPk:sum(packetBytes) 62004
attr interpolationmode none
attr recordingmode sum(packetBytes)
attr source decapPk
attr title "packets decapsulated, sum(packetBytes)"
scalar v3_mesh.Router2.ethernet encapPk:count 473
attr interpolationmode none
attr recordingmode count
attr source encapPk
attr title "packets encapsulated, count"
scalar v3_mesh.Router2.ethernet encapPk:sum(packetBytes) 44708
attr interpolationmode none
attr recordingmode sum(packetBytes)
attr source encapPk
attr title "packets encapsulated, sum(packetBytes)"
scalar v3_mesh.Router2.lo[0].lo rcvdPkFromHl:count 0
attr interpolationmode none
attr recordingmode count
attr source packetReceivedFromUpper
attr title "packets received from higher layer, count"
scalar v3_mesh.Router2.lo[0].lo rcvdPkFromHl:sum(packetBytes) 0
attr interpolationmode none
attr recordingmode sum(packetBytes)
attr source packetReceivedFromUpper
attr title "packets received from higher layer, sum(packetBytes)"
scalar v3_mesh.Router2.lo[0].lo passedUpPk:count 0
attr interpolationmode none
attr recordingmode count
attr source packetSentToUpper
attr title "packets passed to higher layer, count"
scalar v3_mesh.Router2.lo[0].lo passedUpPk:sum(packetBytes) 0
attr interpolationmode none
attr recordingmode sum(packetBytes)
attr source packetSentToUpper
attr title "packets passed to higher layer, sum(packetBytes)"
scalar v3_mesh.Router2.lo[0] packetDropInterfaceDown:count 0
attr interpolationmode none
attr recordingmode count
attr source packetDropReasonIsInterfaceDown(packetDropped)
attr title "packet drops: interface down, count"
scalar v3_mesh.Router2.lo[0] packetDropInterfaceDown:sum(packetBytes) 0
attr interpolationmode none
attr recordingmode sum(packetBytes)
attr source packetDropReasonIsInterfaceDown(packetDropped)
attr title "packet drops: interface down, sum(packetBytes)"
scalar v3_mesh.Router2.lo[0] packetDropNoCarrier:count 0
attr interpolationmode none
attr recordingmode count
attr source packetDropReasonIsNoCarrier(packetDropped)
attr title "packet drops: no carrier, count"
scalar v3_mesh.Router2.lo[0] packetDropNoCarrier:sum(packetBytes) 0
attr interpolationmode none
attr recordingmode sum(packetBytes)
attr source packetDropReasonIsNoCarrier(packetDropped)
attr title "packet drops: no carrier, sum(packetBytes)"
scalar v3_mesh.Router2.eth[0].queue queueLength:last 0
attr autoWarmupFilter false
attr interpolationmode sample-hold
attr recordingmode last
attr source "warmup(atomic(constant0(packetPushEnded) + count(packetPushStarted) - count(packetPulled) - count(packetRemoved) - count(packetDropped)))"
attr title "queue length, last"
attr unit pk
scalar v3_mesh.Router2.eth[0].queue queueLength:max 13
attr autoWarmupFilter false
attr interpolationmode sample-hold
attr recordingmode max
attr source "warmup(atomic(constant0(packetPushEnded) + count(packetPushStarted) - count(packetPulled) - count(packetRemoved) - count(packetDropped)))"
attr title "queue length, max"
attr unit pk
scalar v3_mesh.Router2.eth[0].queue queueLength:timeavg 1.26344e-05
attr autoWarmupFilter false
attr interpolationmode sample-hold
attr recordingmode timeavg
attr source "warmup(atomic(constant0(packetPushEnded) + count(packetPushStarted) - count(packetPulled) - count(packetRemoved) - count(packetDropped)))"
attr title "queue length, timeavg"
attr unit pk
scalar v3_mesh.Router2.eth[0].queue queueBitLength:last 0
attr autoWarmupFilter false
attr interpolationmode sample-hold
attr recordingmode last
attr source "warmup(atomic(constant0(packetPushEnded) + sum(packetLength(packetPushStarted)) - sum(packetLength(packetPulled)) - sum(packetLength(packetRemoved)) - sum(packetLength(packetDropped))))"
attr title "queue bit length, last"
attr unit b
scalar v3_mesh.Router2.eth[0].queue queueBitLength:max 12240
attr autoWarmupFilter false
attr interpolationmode sample-hold
attr recordingmode max
attr source "warmup(atomic(constant0(packetPushEnded) + sum(packetLength(packetPushStarted)) - sum(packetLength(packetPulled)) - sum(packetLength(packetRemoved)) - sum(packetLength(packetDropped))))"
attr title "queue bit length, max"
attr unit b
scalar v3_mesh.Router2.eth[0].queue queueBitLength:timeavg 0.01172333696
attr autoWarmupFilter false
attr interpolationmode sample-hold
attr recordingmode timeavg
attr source "warmup(atomic(constant0(packetPushEnded) + sum(packetLength(packetPushStarted)) - sum(packetLength(packetPulled)) - sum(packetLength(packetRemoved)) - sum(packetLength(packetDropped))))"
attr title "queue bit length, timeavg"
attr unit b
statistic v3_mesh.Router2.eth[0].queue queueingTime:histogram
field count 217
field mean 2.9111520737327e-05
field stddev 4.029836852215e-05
field min 0
field max 0.0001391
field sum 0.0063172
field sqrsum 5.34678336e-07
attr interpolationmode none
attr recordingmode histogram
attr source queueingTime(packetPulled)
attr title "queueing times"
attr unit s
bin	-inf	0
bin	0	108
bin	2e-06	4
bin	4e-06	0
bin	6e-06	2
bin	8e-06	4
bin	1e-05	4
bin	1.2e-05	5
bin	1.4e-05	2
bin	1.6e-05	3
bin	1.8e-05	4
bin	2e-05	5
bin	2.2e-05	1
bin	2.4e-05	3
bin	2.6e-05	1
bin	2.8e-05	0
bin	3e-05	2
bin	3.2e-05	0
bin	3.4e-05	0
bin	3.6e-05	2
bin	3.8e-05	1
bin	4e-05	3
bin	4.2e-05	1
bin	4.4e-05	0
bin	4.6e-05	2
bin	4.8e-05	4
bin	5e-05	1
bin	5.2e-05	1
bin	5.4e-05	1
bin	5.6e-05	2
bin	5.8e-05	1
bin	6e-05	0
bin	6.2e-05	2
bin	6.4e-05	2
bin	6.6e-05	0
bin	6.8e-05	2
bin	7e-05	2
bin	7.2e-05	1
bin	7.4e-05	0
bin	7.6e-05	2
bin	7.8e-05	4
bin	8e-05	1
bin	8.2e-05	0
bin	8.4e-05	1
bin	8.6e-05	1
bin	8.8e-05	1
bin	9e-05	4
bin	9.2e-05	1
bin	9.4e-05	1
bin	9.6e-05	0
bin	9.8e-05	2
bin	0.0001	1
bin	0.000102	1
bin	0.000104	3
bin	0.000106	3
bin	0.000108	4
bin	0.00011	1
bin	0.000112	0
bin	0.000114	1
bin	0.000116	2
bin	0.000118	2
bin	0.00012	0
bin	0.000122	0
bin	0.000124	2
bin	0.000126	0
bin	0.000128	2
bin	0.00013	0
bin	0.000132	0
bin	0.000134	0
bin	0.000136	0
bin	0.000138	1
bin	0.00014	0
bin	0.000142	0
bin	0.000144	0
bin	0.000146	0
bin	0.000148	0
bin	0.00015	0
bin	0.000152	0
bin	0.000154	0
bin	0.000156	0
bin	0.000158	0
bin	0.00016	0
bin	0.000162	0
bin	0.000164	0
bin	0.000166	0
bin	0.000168	0
bin	0.00017	0
bin	0.000172	0
bin	0.000174	0
scalar v3_mesh.Router2.eth[0].queue outgoingPackets:count 217
attr recordingmode count
attr source packetPulled
attr title "outgoing packets, count"
attr unit pk
scalar v3_mesh.Router2.eth[0].queue outgoingPacketLengths:sum 192144
attr interpolationmode none
attr recordingmode sum
attr source packetLength(packetPulled)
attr title "outgoing packet lengths, sum"
attr unit b
statistic v3_mesh.Router2.eth[0].queue outgoingPacketLengths:histogram
field count 217
field mean 885.45622119816
field stddev 312.60106391034
field min 688
field max 4592
field sum 192144
field sqrsum 191242496
attr interpolationmode none
attr recordingmode histogram
attr source packetLength(packetPulled)
attr title "outgoing packet lengths"
attr unit b
bin	-inf	0
bin	440	0
bin	520	0
bin	600	0
bin	680	86
bin	760	61
bin	840	9
bin	920	24
bin	1000	18
bin	1080	0
bin	1160	15
bin	1240	0
bin	1320	1
bin	1400	0
bin	1480	0
bin	1560	0
bin	1640	1
bin	1720	0
bin	1800	0
bin	1880	0
bin	1960	0
bin	2040	0
bin	2120	0
bin	2200	0
bin	2280	0
bin	2360	0
bin	2440	1
bin	2520	0
bin	2600	0
bin	2680	0
bin	2760	0
bin	2840	0
bin	2920	0
bin	3000	0
bin	3080	0
bin	3160	0
bin	3240	0
bin	3320	0
bin	3400	0
bin	3480	0
bin	3560	0
bin	3640	0
bin	3720	0
bin	3800	0
bin	3880	0
bin	3960	0
bin	4040	0
bin	4120	0
bin	4200	0
bin	4280	0
bin	4360	0
bin	4440	0
bin	4520	1
bin	4600	0
statistic v3_mesh.Router2.eth[0].queue flowQueueingTime:histogram
field count 0
field mean -nan
field stddev nan
field min nan
field max nan
field sum 0
field sqrsum 0
attr interpolationmode none
attr recordingmode histogram
attr source queueingTime(demuxFlow(packetPulled))
attr title "flow queueing times"
attr unit s
bin	-inf	0
bin	0	0
bin	1	0
scalar v3_mesh.Router2.eth[0].queue incomingPackets:count 217
attr recordingmode count
attr source packetPushStarted
attr title "incoming packets, count"
attr unit pk
scalar v3_mesh.Router2.eth[0].queue incomingPacketLengths:sum 192144
attr interpolationmode none
attr recordingmode sum
attr source packetLength(packetPushStarted)
attr title "incoming packet lengths, sum"
attr unit b
statistic v3_mesh.Router2.eth[0].queue incomingPacketLengths:histogram
field count 217
field mean 885.45622119816
field stddev 312.60106391034
field min 688
field max 4592
field sum 192144
field sqrsum 191242496
attr interpolationmode none
attr recordingmode histogram
attr source packetLength(packetPushStarted)
attr title "incoming packet lengths"
attr unit b
bin	-inf	0
bin	440	0
bin	520	0
bin	600	0
bin	680	86
bin	760	61
bin	840	9
bin	920	24
bin	1000	18
bin	1080	0
bin	1160	15
bin	1240	0
bin	1320	1
bin	1400	0
bin	1480	0
bin	1560	0
bin	1640	1
bin	1720	0
bin	1800	0
bin	1880	0
bin	1960	0
bin	2040	0
bin	2120	0
bin	2200	0
bin	2280	0
bin	2360	0
bin	2440	1
bin	2520	0
bin	2600	0
bin	2680	0
bin	2760	0
bin	2840	0
bin	2920	0
bin	3000	0
bin	3080	0
bin	3160	0
bin	3240	0
bin	3320	0
bin	3400	0
bin	3480	0
bin	3560	0
bin	3640	0
bin	3720	0
bin	3800	0
bin	3880	0
bin	3960	0
bin	4040	0
bin	4120	0
bin	4200	0
bin	4280	0
bin	4360	0
bin	4440	0
bin	4520	1
bin	4600	0
scalar v3_mesh.Router2.eth[0].queue droppedPacketsQueueOverflow:count 0
attr interpolationmode none
attr recordingmode count
attr source packetDropReasonIsQueueOverflow(packetDropped)
attr title "dropped packets: queue overflow, count"
attr unit pk
scalar v3_mesh.Router2.eth[0].queue droppedPacketLengthsQueueOverflow:sum 0
attr interpolationmode none
attr recordingmode sum
attr source packetLength(packetDropReasonIsQueueOverflow(packetDropped))
attr title "dropped packet lengths: queue overflow, sum"
attr unit b
scalar v3_mesh.Router2.eth[0].mac "simulated time" 500
scalar v3_mesh.Router2.eth[0].mac full-duplex 1
scalar v3_mesh.Router2.eth[0].mac "frames/sec sent" 0.434
scalar v3_mesh.Router2.eth[0].mac "frames/sec rcvd" 0.81
scalar v3_mesh.Router2.eth[0].mac "bits/sec sent" 384.288
scalar v3_mesh.Router2.eth[0].mac "bits/sec rcvd" 708
scalar v3_mesh.Router2.eth[0].mac "rx channel idle (%)" 99.99924016
scalar v3_mesh.Router2.eth[0].mac "rx channel utilization (%)" 0.00075984
scalar v3_mesh.Router2.eth[0].mac rxPausePkUnits:count 0
attr interpolationmode none
attr recordingmode count
attr title "pause units received, count"
scalar v3_mesh.Router2.eth[0].mac rxPausePkUnits:sum 0
attr interpolationmode none
attr recordingmode sum
attr title "pause units received, sum"
scalar v3_mesh.Router2.eth[0].mac txPausePkUnits:count 0
attr interpolationmode none
attr recordingmode count
attr title "pause units sent, count"
scalar v3_mesh.Router2.eth[0].mac txPausePkUnits:sum 0
attr interpolationmode none
attr recordingmode sum
attr title "pause units sent, sum"
scalar v3_mesh.Router2.eth[0].mac rxPkOk:count 405
attr interpolationmode none
attr recordingmode count
attr source rxPkOk
attr title "packets received OK, count"
scalar v3_mesh.Router2.eth[0].mac rxPkOk:sum(packetBytes) 44250
attr interpolationmode none
attr recordingmode sum(packetBytes)
attr source rxPkOk
attr title "packets received OK, sum(packetBytes)"
statistic v3_mesh.Router2.eth[0].mac throughput:histogram
field count 5000
field mean 412.064
field stddev 10853.583258713
field min 0
field max 562880
field sum 2060320
field sqrsum 589732531200
attr interpolationmode linear
attr recordingmode histogram
attr source throughput(transmissionEnded)
attr title throughput
attr unit bps
bin	-inf	0
bin	0	4993
bin	12400	0
bin	24800	0
bin	37200	1
bin	49600	0
bin	62000	0
bin	74400	1
bin	86800	0
bin	99200	0
bin	111600	2
bin	124000	0
bin	136400	0
bin	148800	0
bin	161200	0
bin	173600	0
bin	186000	0
bin	198400	0
bin	210800	0
bin	223200	0
bin	235600	0
bin	248000	0
bin	260400	0
bin	272800	0
bin	285200	0
bin	297600	0
bin	310000	1
bin	322400	0
bin	334800	0
bin	347200	0
bin	359600	1
bin	372000	0
bin	384400	0
bin	396800	0
bin	409200	0
bin	421600	0
bin	434000	0
bin	446400	0
bin	458800	0
bin	471200	0
bin	483600	0
bin	496000	0
bin	508400	0
bin	520800	0
bin	533200	0
bin	545600	0
bin	558000	1
bin	570400	0
statistic v3_mesh.Router2.eth[0].mac utilization:histogram
field count 5000
field mean 0.000412064
field stddev 0.010853583258713
field min 0
field max 0.56288
field sum 2.06032
field sqrsum 0.5897325312
attr interpolationmode linear
attr recordingmode histogram
attr source "100 * utilization(count(transmissionStarted) - count(transmissionEnded))"
attr title utilization
attr unit %
bin	-inf	0
bin	0	4993
bin	0.0124	0
bin	0.0248	0
bin	0.0372	1
bin	0.0496	0
bin	0.062	0
bin	0.0744	1
bin	0.0868	0
bin	0.0992	0
bin	0.1116	2
bin	0.124	0
bin	0.1364	0
bin	0.1488	0
bin	0.1612	0
bin	0.1736	0
bin	0.186	0
bin	0.1984	0
bin	0.2108	0
bin	0.2232	0
bin	0.2356	0
bin	0.248	0
bin	0.2604	0
bin	0.2728	0
bin	0.2852	0
bin	0.2976	0
bin	0.31	1
bin	0.3224	0
bin	0.3348	0
bin	0.3472	0
bin	0.3596	1
bin	0.372	0
bin	0.3844	0
bin	0.3968	0
bin	0.4092	0
bin	0.4216	0
bin	0.434	0
bin	0.4464	0
bin	0.4588	0
bin	0.4712	0
bin	0.4836	0
bin	0.496	0
bin	0.5084	0
bin	0.5208	0
bin	0.5332	0
bin	0.5456	0
bin	0.558	1
bin	0.5704	0
scalar v3_mesh.Router2.eth[0].mac txPk:count 217
attr interpolationmode none
attr recordingmode count
attr source packetSentToLower
attr title "packets transmitted, count"
scalar v3_mesh.Router2.eth[0].mac txPk:sum(packetBytes) 24018
attr interpolationmode none
attr recordingmode sum(packetBytes)
attr source packetSentToLower
attr title "packets transmitted, sum(packetBytes)"
scalar v3_mesh.Router2.eth[0].mac packetReceivedFromUpper:count 217
attr interpolationmode none
attr recordingmode count
attr source packetReceivedFromUpper
attr title "packet bytes from higher layer, count"
scalar v3_mesh.Router2.eth[0].mac packetReceivedFromUpper:sum(packetBytes) 24018
attr interpolationmode none
attr recordingmode sum(packetBytes)
attr source packetReceivedFromUpper
attr title "packet bytes from higher layer, sum(packetBytes)"
scalar v3_mesh.Router2.eth[0].mac passedUpPk:count 405
attr interpolationmode none
attr recordingmode count
attr source packetSentToUpper
attr title "packets passed to higher layer, count"
scalar v3_mesh.Router2.eth[0].mac passedUpPk:sum(packetBytes) 44250
attr interpolationmode none
attr recordingmode sum(packetBytes)
attr source packetSentToUpper
attr title "packets passed to higher layer, sum(packetBytes)"
scalar v3_mesh.Router2.eth[0].mac packetDropIncorrectlyReceived:count 0
attr interpolationmode none
attr recordingmode count
attr source packetDropReasonIsIncorrectlyReceived(packetDropped)
attr title "packet drop: incorrectly received, count"
scalar v3_mesh.Router2.eth[0].mac packetDropIncorrectlyReceived:sum(packetBytes) 0
attr interpolationmode none
attr recordingmode sum(packetBytes)
attr source packetDropReasonIsIncorrectlyReceived(packetDropped)
attr title "packet drop: incorrectly received, sum(packetBytes)"
scalar v3_mesh.Router2.eth[0].mac packetDropInterfaceDown:count 0
attr interpolationmode none
attr recordingmode count
attr source packetDropReasonIsInterfaceDown(packetDropped)
attr title "packet drop: interface down, count"
scalar v3_mesh.Router2.eth[0].mac packetDropInterfaceDown:sum(packetBytes) 0
attr interpolationmode none
attr recordingmode sum(packetBytes)
attr source packetDropReasonIsInterfaceDown(packetDropped)
attr title "packet drop: interface down, sum(packetBytes)"
scalar v3_mesh.Router2.eth[0].mac packetDropNotAddressedToUs:count 0
attr interpolationmode none
attr recordingmode count
attr source packetDropReasonIsNotAddressedToUs(packetDropped)
attr title "packet drop: not addressed to us, count"
scalar v3_mesh.Router2.eth[0].mac packetDropNotAddressedToUs:sum(packetBytes) 0
attr interpolationmode none
attr recordingmode sum(packetBytes)
attr source packetDropReasonIsNotAddressedToUs(packetDropped)
attr title "packet drop: not addressed to us, sum(packetBytes)"
scalar v3_mesh.Router2.eth[0] packetDropInterfaceDown:count 0
attr interpolationmode none
attr recordingmode count
attr source packetDropReasonIsInterfaceDown(packetDropped)
attr title "packet drops: interface down, count"
scalar v3_mesh.Router2.eth[0] packetDropInterfaceDown:sum(packetBytes) 0
attr interpolationmode none
attr recordingmode sum(packetBytes)
attr source packetDropReasonIsInterfaceDown(packetDropped)
attr title "packet drops: interface down, sum(packetBytes)"
scalar v3_mesh.Router2.eth[0] packetDropNoCarrier:count 0
attr interpolationmode none
attr recordingmode count
attr source packetDropReasonIsNoCarrier(packetDropped)
attr title "packet drops: no carrier, count"
scalar v3_mesh.Router2.eth[0] packetDropNoCarrier:sum(packetBytes) 0
attr interpolationmode none
attr recordingmode sum(packetBytes)
attr source packetDropReasonIsNoCarrier(packetDropped)
attr title "packet drops: no carrier, sum(packetBytes)"
scalar v3_mesh.Router2.eth[1].queue queueLength:last 0
attr autoWarmupFilter false
attr interpolationmode sample-hold
attr recordingmode last
attr source "warmup(atomic(constant0(packetPushEnded) + count(packetPushStarted) - count(packetPulled) - count(packetRemoved) - count(packetDropped)))"
attr title "queue length, last"
attr unit pk
scalar v3_mesh.Router2.eth[1].queue queueLength:max 9
attr autoWarmupFilter false
attr interpolationmode sample-hold
attr recordingmode max
attr source "warmup(atomic(constant0(packetPushEnded) + count(packetPushStarted) - count(packetPulled) - count(packetRemoved) - count(packetDropped)))"
attr title "queue length, max"
attr unit pk
scalar v3_mesh.Router2.eth[1].queue queueLength:timeavg 4.3482e-06
attr autoWarmupFilter false
attr interpolationmode sample-hold
attr recordingmode timeavg
attr source "warmup(atomic(constant0(packetPushEnded) + count(packetPushStarted) - count(packetPulled) - count(packetRemoved) - count(packetDropped)))"
attr title "queue length, timeavg"
attr unit pk
scalar v3_mesh.Router2.eth[1].queue queueBitLength:last 0
attr autoWarmupFilter false
attr interpolationmode sample-hold
attr recordingmode last
attr source "warmup(atomic(constant0(packetPushEnded) + sum(packetLength(packetPushStarted)) - sum(packetLength(packetPulled)) - sum(packetLength(packetRemoved)) - sum(packetLength(packetDropped))))"
attr title "queue bit length, last"
attr unit b
scalar v3_mesh.Router2.eth[1].queue queueBitLength:max 8320
attr autoWarmupFilter false
attr interpolationmode sample-hold
attr recordingmode max
attr source "warmup(atomic(constant0(packetPushEnded) + sum(packetLength(packetPushStarted)) - sum(packetLength(packetPulled)) - sum(packetLength(packetRemoved)) - sum(packetLength(packetDropped))))"
attr title "queue bit length, max"
attr unit b
scalar v3_mesh.Router2.eth[1].queue queueBitLength:timeavg 0.00422826944
attr autoWarmupFilter false
attr interpolationmode sample-hold
attr recordingmode timeavg
attr source "warmup(atomic(constant0(packetPushEnded) + sum(packetLength(packetPushStarted)) - sum(packetLength(packetPulled)) - sum(packetLength(packetRemoved)) - sum(packetLength(packetDropped))))"
attr title "queue bit length, timeavg"
attr unit b
statistic v3_mesh.Router2.eth[1].queue queueingTime:histogram
field count 135
field mean 1.6104444444444e-05
field stddev 2.4875948183134e-05
field min 0
field max 8.598e-05
field sum 0.0021741
field sqrsum 1.179335876e-07
attr interpolationmode none
attr recordingmode histogram
attr source queueingTime(packetPulled)
attr title "queueing times"
attr unit s
bin	-inf	0
bin	0	79
bin	2e-06	1
bin	4e-06	0
bin	6e-06	1
bin	8e-06	3
bin	1e-05	3
bin	1.2e-05	4
bin	1.4e-05	2
bin	1.6e-05	0
bin	1.8e-05	1
bin	2e-05	2
bin	2.2e-05	0
bin	2.4e-05	2
bin	2.6e-05	2
bin	2.8e-05	3
bin	3e-05	5
bin	3.2e-05	3
bin	3.4e-05	0
bin	3.6e-05	1
bin	3.8e-05	2
bin	4e-05	1
bin	4.2e-05	0
bin	4.4e-05	1
bin	4.6e-05	1
bin	4.8e-05	1
bin	5e-05	0
bin	5.2e-05	1
bin	5.4e-05	0
bin	5.6e-05	1
bin	5.8e-05	0
bin	6e-05	2
bin	6.2e-05	2
bin	6.4e-05	2
bin	6.6e-05	0
bin	6.8e-05	0
bin	7e-05	0
bin	7.2e-05	2
bin	7.4e-05	0
bin	7.6e-05	2
bin	7.8e-05	0
bin	8e-05	0
bin	8.2e-05	1
bin	8.4e-05	4
bin	8.6e-05	0
bin	8.8e-05	0
bin	9e-05	0
bin	9.2e-05	0
bin	9.4e-05	0
bin	9.6e-05	0
bin	9.8e-05	0
bin	0.0001	0
bin	0.000102	0
bin	0.000104	0
bin	0.000106	0
bin	0.000108	0
scalar v3_mesh.Router2.eth[1].queue outgoingPackets:count 135
attr recordingmode count
attr source packetPulled
attr title "outgoing packets, count"
attr unit pk
scalar v3_mesh.Router2.eth[1].queue outgoingPacketLengths:sum 125872
attr interpolationmode none
attr recordingmode sum
attr source packetLength(packetPulled)
attr title "outgoing packet lengths, sum"
attr unit b
statistic v3_mesh.Router2.eth[1].queue outgoingPacketLengths:histogram
field count 135
field mean 932.38518518519
field stddev 480.16884445148
field min 688
field max 5360
field sum 125872
field sqrsum 148256512
attr interpolationmode none
attr recordingmode histogram
attr source packetLength(packetPulled)
attr title "outgoing packet lengths"
attr unit b
bin	-inf	0
bin	0	0
bin	100	0
bin	200	0
bin	300	0
bin	400	0
bin	500	0
bin	600	2
bin	700	70
bin	800	18
bin	900	17
bin	1000	10
bin	1100	9
bin	1200	6
bin	1300	0
bin	1400	0
bin	1500	1
bin	1600	0
bin	1700	0
bin	1800	0
bin	1900	0
bin	2000	0
bin	2100	0
bin	2200	0
bin	2300	0
bin	2400	0
bin	2500	0
bin	2600	0
bin	2700	0
bin	2800	0
bin	2900	0
bin	3000	0
bin	3100	0
bin	3200	0
bin	3300	0
bin	3400	0
bin	3500	0
bin	3600	1
bin	3700	0
bin	3800	0
bin	3900	0
bin	4000	0
bin	4100	0
bin	4200	0
bin	4300	0
bin	4400	0
bin	4500	0
bin	4600	0
bin	4700	0
bin	4800	0
bin	4900	0
bin	5000	0
bin	5100	0
bin	5200	0
bin	5300	1
bin	5400	0
bin	5500	0
bin	5600	0
bin	5700	0
bin	5800	0
bin	5900	0
bin	6000	0
bin	6100	0
bin	6200	0
bin	6300	0
bin	6400	0
bin	6500	0
bin	6600	0
statistic v3_mesh.Router2.eth[1].queue flowQueueingTime:histogram
field count 0
field mean -nan
field stddev nan
field min nan
field max nan
field sum 0
field sqrsum 0
attr interpolationmode none
attr recordingmode histogram
attr source queueingTime(demuxFlow(packetPulled))
attr title "flow queueing times"
attr unit s
bin	-inf	0
bin	0	0
bin	1	0
scalar v3_mesh.Router2.eth[1].queue incomingPackets:count 135
attr recordingmode count
attr source packetPushStarted
attr title "incoming packets, count"
attr unit pk
scalar v3_mesh.Router2.eth[1].queue incomingPacketLengths:sum 125872
attr interpolationmode none
attr recordingmode sum
attr source packetLength(packetPushStarted)
attr title "incoming packet lengths, sum"
attr unit b
statistic v3_mesh.Router2.eth[1].queue incomingPacketLengths:histogram
field count 135
field mean 932.38518518519
field stddev 480.16884445148
field min 688
field max 5360
field sum 125872
field sqrsum 148256512
attr interpolationmode none
attr recordingmode histogram
attr source packetLength(packetPushStarted)
attr title "incoming packet lengths"
attr unit b
bin	-inf	0
bin	0	0
bin	100	0
bin	200	0
bin	300	0
bin	400	0
bin	500	0
bin	600	2
bin	700	70
bin	800	18
bin	900	17
bin	1000	10
bin	1100	9
bin	1200	6
bin	1300	0
bin	1400	0
bin	1500	1
bin	1600	0
bin	1700	0
bin	1800	0
bin	1900	0
bin	2000	0
bin	2100	0
bin	2200	0
bin	2300	0
bin	2400	0
bin	2500	0
bin	2600	0
bin	2700	0
bin	2800	0
bin	2900	0
bin	3000	0
bin	3100	0
bin	3200	0
bin	3300	0
bin	3400	0
bin	3500	0
bin	3600	1
bin	3700	0
bin	3800	0
bin	3900	0
bin	4000	0
bin	4100	0
bin	4200	0
bin	4300	0
bin	4400	0
bin	4500	0
bin	4600	0
bin	4700	0
bin	4800	0
bin	4900	0
bin	5000	0
bin	5100	0
bin	5200	0
bin	5300	1
bin	5400	0
bin	5500	0
bin	5600	0
bin	5700	0
bin	5800	0
bin	5900	0
bin	6000	0
bin	6100	0
bin	6200	0
bin	6300	0
bin	6400	0
bin	6500	0
bin	6600	0
scalar v3_mesh.Router2.eth[1].queue droppedPacketsQueueOverflow:count 0
attr interpolationmode none
attr recordingmode count
attr source packetDropReasonIsQueueOverflow(packetDropped)
attr title "dropped packets: queue overflow, count"
attr unit pk
scalar v3_mesh.Router2.eth[1].queue droppedPacketLengthsQueueOverflow:sum 0
attr interpolationmode none
attr recordingmode sum
attr source packetLength(packetDropReasonIsQueueOverflow(packetDropped))
attr title "dropped packet lengths: queue overflow, sum"
attr unit b
scalar v3_mesh.Router2.eth[1].mac "simulated time" 500
scalar v3_mesh.Router2.eth[1].mac full-duplex 1
scalar v3_mesh.Router2.eth[1].mac "frames/sec sent" 0.27
scalar v3_mesh.Router2.eth[1].mac "frames/sec rcvd" 0.252
scalar v3_mesh.Router2.eth[1].mac "bits/sec sent" 251.744
scalar v3_mesh.Router2.eth[1].mac "bits/sec rcvd" 220.928
scalar v3_mesh.Router2.eth[1].mac "rx channel idle (%)" 99.999762944
scalar v3_mesh.Router2.eth[1].mac "rx channel utilization (%)" 0.000237056
scalar v3_mesh.Router2.eth[1].mac rxPausePkUnits:count 0
attr interpolationmode none
attr recordingmode count
attr title "pause units received, count"
scalar v3_mesh.Router2.eth[1].mac rxPausePkUnits:sum 0
attr interpolationmode none
attr recordingmode sum
attr title "pause units received, sum"
scalar v3_mesh.Router2.eth[1].mac txPausePkUnits:count 0
attr interpolationmode none
attr recordingmode count
attr title "pause units sent, count"
scalar v3_mesh.Router2.eth[1].mac txPausePkUnits:sum 0
attr interpolationmode none
attr recordingmode sum
attr title "pause units sent, sum"
scalar v3_mesh.Router2.eth[1].mac rxPkOk:count 126
attr interpolationmode none
attr recordingmode count
attr source rxPkOk
attr title "packets received OK, count"
scalar v3_mesh.Router2.eth[1].mac rxPkOk:sum(packetBytes) 13808
attr interpolationmode none
attr recordingmode sum(packetBytes)
attr source rxPkOk
attr title "packets received OK, sum(packetBytes)"
statistic v3_mesh.Router2.eth[1].mac throughput:histogram
field count 5000
field mean 269.024
field stddev 5868.7227289009
field min 0
field max 267040
field sum 1345120
field sqrsum 172536960000
attr interpolationmode linear
attr recordingmode histogram
attr source throughput(transmissionEnded)
attr title throughput
attr unit bps
bin	-inf	0
bin	0	4939
bin	3400	0
bin	6800	53
bin	10200	0
bin	13600	1
bin	17000	1
bin	20400	1
bin	23800	0
bin	27200	0
bin	30600	0
bin	34000	0
bin	37400	0
bin	40800	0
bin	44200	0
bin	47600	0
bin	51000	0
bin	54400	0
bin	57800	0
bin	61200	0
bin	64600	0
bin	68000	0
bin	71400	1
bin	74800	0
bin	78200	0
bin	81600	0
bin	85000	0
bin	88400	0
bin	91800	0
bin	95200	1
bin	98600	0
bin	102000	0
bin	105400	0
bin	108800	0
bin	112200	0
bin	115600	0
bin	119000	0
bin	122400	0
bin	125800	0
bin	129200	0
bin	132600	0
bin	136000	0
bin	139400	0
bin	142800	0
bin	146200	0
bin	149600	0
bin	153000	0
bin	156400	0
bin	159800	0
bin	163200	0
bin	166600	0
bin	170000	0
bin	173400	0
bin	176800	0
bin	180200	0
bin	183600	0
bin	187000	0
bin	190400	0
bin	193800	1
bin	197200	0
bin	200600	0
bin	204000	0
bin	207400	1
bin	210800	0
bin	214200	0
bin	217600	0
bin	221000	0
bin	224400	0
bin	227800	0
bin	231200	0
bin	234600	0
bin	238000	0
bin	241400	0
bin	244800	0
bin	248200	0
bin	251600	0
bin	255000	0
bin	258400	0
bin	261800	0
bin	265200	1
bin	268600	0
statistic v3_mesh.Router2.eth[1].mac utilization:histogram
field count 5000
field mean 0.000269024
field stddev 0.0058687227289009
field min 0
field max 0.26704
field sum 1.34512
field sqrsum 0.17253696
attr interpolationmode linear
attr recordingmode histogram
attr source "100 * utilization(count(transmissionStarted) - count(transmissionEnded))"
attr title utilization
attr unit %
bin	-inf	0
bin	0	4939
bin	0.0034	0
bin	0.0068	53
bin	0.0102	0
bin	0.0136	1
bin	0.017	1
bin	0.0204	1
bin	0.0238	0
bin	0.0272	0
bin	0.0306	0
bin	0.034	0
bin	0.0374	0
bin	0.0408	0
bin	0.0442	0
bin	0.0476	0
bin	0.051	0
bin	0.0544	0
bin	0.0578	0
bin	0.0612	0
bin	0.0646	0
bin	0.068	0
bin	0.0714	1
bin	0.0748	0
bin	0.0782	0
bin	0.0816	0
bin	0.085	0
bin	0.0884	0
bin	0.0918	0
bin	0.0952	1
bin	0.0986	0
bin	0.102	0
bin	0.1054	0
bin	0.1088	0
bin	0.1122	0
bin	0.1156	0
bin	0.119	0
bin	0.1224	0
bin	0.1258	0
bin	0.1292	0
bin	0.1326	0
bin	0.136	0
bin	0.1394	0
bin	0.1428	0
bin	0.1462	0
bin	0.1496	0
bin	0.153	0
bin	0.1564	0
bin	0.1598	0
bin	0.1632	0
bin	0.1666	0
bin	0.17	0
bin	0.1734	0
bin	0.1768	0
bin	0.1802	0
bin	0.1836	0
bin	0.187	0
bin	0.1904	0
bin	0.1938	1
bin	0.1972	0
bin	0.2006	0
bin	0.204	0
bin	0.2074	1
bin	0.2108	0
bin	0.2142	0
bin	0.2176	0
bin	0.221	0
bin	0.2244	0
bin	0.2278	0
bin	0.2312	0
bin	0.2346	0
bin	0.238	0
bin	0.2414	0
bin	0.2448	0
bin	0.2482	0
bin	0.2516	0
bin	0.255	0
bin	0.2584	0
bin	0.2618	0
bin	0.2652	1
bin	0.2686	0
scalar v3_mesh.Router2.eth[1].mac txPk:count 135
attr interpolationmode none
attr recordingmode count
attr source packetSentToLower
attr title "packets transmitted, count"
scalar v3_mesh.Router2.eth[1].mac txPk:sum(packetBytes) 15734
attr interpolationmode none
attr recordingmode sum(packetBytes)
attr source packetSentToLower
attr title "packets transmitted, sum(packetBytes)"
scalar v3_mesh.Router2.eth[1].mac packetReceivedFromUpper:count 135
attr interpolationmode none
attr recordingmode count
attr source packetReceivedFromUpper
attr title "packet bytes from higher layer, count"
scalar v3_mesh.Router2.eth[1].mac packetReceivedFromUpper:sum(packetBytes) 15734
attr interpolationmode none
attr recordingmode sum(packetBytes)
attr source packetReceivedFromUpper
attr title "packet bytes from higher layer, sum(packetBytes)"
scalar v3_mesh.Router2.eth[1].mac passedUpPk:count 126
attr interpolationmode none
attr recordingmode count
attr source packetSentToUpper
attr title "packets passed to higher layer, count"
scalar v3_mesh.Router2.eth[1].mac passedUpPk:sum(packetBytes) 13808
attr interpolationmode none
attr recordingmode sum(packetBytes)
attr source packetSentToUpper
attr title "packets passed to higher layer, sum(packetBytes)"
scalar v3_mesh.Router2.eth[1].mac packetDropIncorrectlyReceived:count 0
attr interpolationmode none
attr recordingmode count
attr source packetDropReasonIsIncorrectlyReceived(packetDropped)
attr title "packet drop: incorrectly received, count"
scalar v3_mesh.Router2.eth[1].mac packetDropIncorrectlyReceived:sum(packetBytes) 0
attr interpolationmode none
attr recordingmode sum(packetBytes)
attr source packetDropReasonIsIncorrectlyReceived(packetDropped)
attr title "packet drop: incorrectly received, sum(packetBytes)"
scalar v3_mesh.Router2.eth[1].mac packetDropInterfaceDown:count 0
attr interpolationmode none
attr recordingmode count
attr source packetDropReasonIsInterfaceDown(packetDropped)
attr title "packet drop: interface down, count"
scalar v3_mesh.Router2.eth[1].mac packetDropInterfaceDown:sum(packetBytes) 0
attr interpolationmode none
attr recordingmode sum(packetBytes)
attr source packetDropReasonIsInterfaceDown(packetDropped)
attr title "packet drop: interface down, sum(packetBytes)"
scalar v3_mesh.Router2.eth[1].mac packetDropNotAddressedToUs:count 0
attr interpolationmode none
attr recordingmode count
attr source packetDropReasonIsNotAddressedToUs(packetDropped)
attr title "packet drop: not addressed to us, count"
scalar v3_mesh.Router2.eth[1].mac packetDropNotAddressedToUs:sum(packetBytes) 0
attr interpolationmode none
attr recordingmode sum(packetBytes)
attr source packetDropReasonIsNotAddressedToUs(packetDropped)
attr title "packet drop: not addressed to us, sum(packetBytes)"
scalar v3_mesh.Router2.eth[1] packetDropInterfaceDown:count 0
attr interpolationmode none
attr recordingmode count
attr source packetDropReasonIsInterfaceDown(packetDropped)
attr title "packet drops: interface down, count"
scalar v3_mesh.Router2.eth[1] packetDropInterfaceDown:sum(packetBytes) 0
attr interpolationmode none
attr recordingmode sum(packetBytes)
attr source packetDropReasonIsInterfaceDown(packetDropped)
attr title "packet drops: interface down, sum(packetBytes)"
scalar v3_mesh.Router2.eth[1] packetDropNoCarrier:count 0
attr interpolationmode none
attr recordingmode count
attr source packetDropReasonIsNoCarrier(packetDropped)
attr title "packet drops: no carrier, count"
scalar v3_mesh.Router2.eth[1] packetDropNoCarrier:sum(packetBytes) 0
attr interpolationmode none
attr recordingmode sum(packetBytes)
attr source packetDropReasonIsNoCarrier(packetDropped)
attr title "packet drops: no carrier, sum(packetBytes)"
scalar v3_mesh.Router2.eth[2].queue queueLength:last 0
attr autoWarmupFilter false
attr interpolationmode sample-hold
attr recordingmode last
attr source "warmup(atomic(constant0(packetPushEnded) + count(packetPushStarted) - count(packetPulled) - count(packetRemoved) - count(packetDropped)))"
attr title "queue length, last"
attr unit pk
scalar v3_mesh.Router2.eth[2].queue queueLength:max 10
attr autoWarmupFilter false
attr interpolationmode sample-hold
attr recordingmode max
attr source "warmup(atomic(constant0(packetPushEnded) + count(packetPushStarted) - count(packetPulled) - count(packetRemoved) - count(packetDropped)))"
attr title "queue length, max"
attr unit pk
scalar v3_mesh.Router2.eth[2].queue queueLength:timeavg 3.29612e-06
attr autoWarmupFilter false
attr interpolationmode sample-hold
attr recordingmode timeavg
attr source "warmup(atomic(constant0(packetPushEnded) + count(packetPushStarted) - count(packetPulled) - count(packetRemoved) - count(packetDropped)))"
attr title "queue length, timeavg"
attr unit pk
scalar v3_mesh.Router2.eth[2].queue queueBitLength:last 0
attr autoWarmupFilter false
attr interpolationmode sample-hold
attr recordingmode last
attr source "warmup(atomic(constant0(packetPushEnded) + sum(packetLength(packetPushStarted)) - sum(packetLength(packetPulled)) - sum(packetLength(packetRemoved)) - sum(packetLength(packetDropped))))"
attr title "queue bit length, last"
attr unit b
scalar v3_mesh.Router2.eth[2].queue queueBitLength:max 7840
attr autoWarmupFilter false
attr interpolationmode sample-hold
attr recordingmode max
attr source "warmup(atomic(constant0(packetPushEnded) + sum(packetLength(packetPushStarted)) - sum(packetLength(packetPulled)) - sum(packetLength(packetRemoved)) - sum(packetLength(packetDropped))))"
attr title "queue bit length, max"
attr unit b
scalar v3_mesh.Router2.eth[2].queue queueBitLength:timeavg 0.00297890496
attr autoWarmupFilter false
attr interpolationmode sample-hold
attr recordingmode timeavg
attr source "warmup(atomic(constant0(packetPushEnded) + sum(packetLength(packetPushStarted)) - sum(packetLength(packetPulled)) - sum(packetLength(packetRemoved)) - sum(packetLength(packetDropped))))"
attr title "queue bit length, timeavg"
attr unit b
statistic v3_mesh.Router2.eth[2].queue queueingTime:histogram
field count 121
field mean 1.3620330578512e-05
field stddev 2.367465381422e-05
field min 0
field max 9.344e-05
field sum 0.00164806
field sqrsum 8.970583e-08
attr interpolationmode none
attr recordingmode histogram
attr source queueingTime(packetPulled)
attr title "queueing times"
attr unit s
bin	-inf	0
bin	0	77
bin	2e-06	1
bin	4e-06	1
bin	6e-06	1
bin	8e-06	2
bin	1e-05	0
bin	1.2e-05	4
bin	1.4e-05	0
bin	1.6e-05	2
bin	1.8e-05	4
bin	2e-05	0
bin	2.2e-05	0
bin	2.4e-05	2
bin	2.6e-05	4
bin	2.8e-05	4
bin	3e-05	1
bin	3.2e-05	0
bin	3.4e-05	1
bin	3.6e-05	2
bin	3.8e-05	0
bin	4e-05	0
bin	4.2e-05	0
bin	4.4e-05	1
bin	4.6e-05	0
bin	4.8e-05	1
bin	5e-05	0
bin	5.2e-05	0
bin	5.4e-05	1
bin	5.6e-05	0
bin	5.8e-05	0
bin	6e-05	0
bin	6.2e-05	2
bin	6.4e-05	3
bin	6.6e-05	0
bin	6.8e-05	0
bin	7e-05	0
bin	7.2e-05	1
bin	7.4e-05	1
bin	7.6e-05	2
bin	7.8e-05	0
bin	8e-05	1
bin	8.2e-05	0
bin	8.4e-05	0
bin	8.6e-05	0
bin	8.8e-05	0
bin	9e-05	1
bin	9.2e-05	1
bin	9.4e-05	0
bin	9.6e-05	0
bin	9.8e-05	0
bin	0.0001	0
bin	0.000102	0
bin	0.000104	0
bin	0.000106	0
bin	0.000108	0
bin	0.00011	0
bin	0.000112	0
bin	0.000114	0
bin	0.000116	0
bin	0.000118	0
scalar v3_mesh.Router2.eth[2].queue outgoingPackets:count 121
attr recordingmode count
attr source packetPulled
attr title "outgoing packets, count"
attr unit pk
scalar v3_mesh.Router2.eth[2].queue outgoingPacketLengths:sum 107760
attr interpolationmode none
attr recordingmode sum
attr source packetLength(packetPulled)
attr title "outgoing packet lengths, sum"
attr unit b
statistic v3_mesh.Router2.eth[2].queue outgoingPacketLengths:histogram
field count 121
field mean 890.57851239669
field stddev 315.06564797584
field min 688
field max 3824
field sum 107760
field sqrsum 107880704
attr interpolationmode none
attr recordingmode histogram
attr source packetLength(packetPulled)
attr title "outgoing packet lengths"
attr unit b
bin	-inf	0
bin	0	0
bin	100	0
bin	200	0
bin	300	0
bin	400	0
bin	500	0
bin	600	2
bin	700	71
bin	800	12
bin	900	15
bin	1000	10
bin	1100	6
bin	1200	2
bin	1300	0
bin	1400	0
bin	1500	1
bin	1600	0
bin	1700	1
bin	1800	0
bin	1900	0
bin	2000	0
bin	2100	0
bin	2200	0
bin	2300	0
bin	2400	0
bin	2500	0
bin	2600	0
bin	2700	0
bin	2800	0
bin	2900	0
bin	3000	0
bin	3100	0
bin	3200	0
bin	3300	0
bin	3400	0
bin	3500	0
bin	3600	0
bin	3700	0
bin	3800	1
bin	3900	0
bin	4000	0
bin	4100	0
bin	4200	0
bin	4300	0
bin	4400	0
bin	4500	0
bin	4600	0
bin	4700	0
statistic v3_mesh.Router2.eth[2].queue flowQueueingTime:histogram
field count 0
field mean -nan
field stddev nan
field min nan
field max nan
field sum 0
field sqrsum 0
attr interpolationmode none
attr recordingmode histogram
attr source queueingTime(demuxFlow(packetPulled))
attr title "flow queueing times"
attr unit s
bin	-inf	0
bin	0	0
bin	1	0
scalar v3_mesh.Router2.eth[2].queue incomingPackets:count 121
attr recordingmode count
attr source packetPushStarted
attr title "incoming packets, count"
attr unit pk
scalar v3_mesh.Router2.eth[2].queue incomingPacketLengths:sum 107760
attr interpolationmode none
attr recordingmode sum
attr source packetLength(packetPushStarted)
attr title "incoming packet lengths, sum"
attr unit b
statistic v3_mesh.Router2.eth[2].queue incomingPacketLengths:histogram
field count 121
field mean 890.57851239669
field stddev 315.06564797584
field min 688
field max 3824
field sum 107760
field sqrsum 107880704
attr interpolationmode none
attr recordingmode histogram
attr source packetLength(packetPushStarted)
attr title "incoming packet lengths"
attr unit b
bin	-inf	0
bin	0	0
bin	100	0
bin	200	0
bin	300	0
bin	400	0
bin	500	0
bin	600	2
bin	700	71
bin	800	12
bin	900	15
bin	1000	10
bin	1100	6
bin	1200	2
bin	1300	0
bin	1400	0
bin	1500	1
bin	1600	0
bin	1700	1
bin	1800	0
bin	1900	0
bin	2000	0
bin	2100	0
bin	2200	0
bin	2300	0
bin	2400	0
bin	2500	0
bin	2600	0
bin	2700	0
bin	2800	0
bin	2900	0
bin	3000	0
bin	3100	0
bin	3200	0
bin	3300	0
bin	3400	0
bin	3500	0
bin	3600	0
bin	3700	0
bin	3800	1
bin	3900	0
bin	4000	0
bin	4100	0
bin	4200	0
bin	4300	0
bin	4400	0
bin	4500	0
bin	4600	0
bin	4700	0
scalar v3_mesh.Router2.eth[2].queue droppedPacketsQueueOverflow:count 0
attr interpolationmode none
attr recordingmode count
attr source packetDropReasonIsQueueOverflow(packetDropped)
attr title "dropped packets: queue overflow, count"
attr unit pk
scalar v3_mesh.Router2.eth[2].queue droppedPacketLengthsQueueOverflow:sum 0
attr interpolationmode none
attr recordingmode sum
attr source packetLength(packetDropReasonIsQueueOverflow(packetDropped))
attr title "dropped packet lengths: queue overflow, sum"
attr unit b
scalar v3_mesh.Router2.eth[2].mac "simulated time" 500
scalar v3_mesh.Router2.eth[2].mac full-duplex 1
scalar v3_mesh.Router2.eth[2].mac "frames/sec sent" 0.242
scalar v3_mesh.Router2.eth[2].mac "frames/sec rcvd" 0.276
scalar v3_mesh.Router2.eth[2].mac "bits/sec sent" 215.52
scalar v3_mesh.Router2.eth[2].mac "bits/sec rcvd" 255.808
scalar v3_mesh.Router2.eth[2].mac "rx channel idle (%)" 99.999726528
scalar v3_mesh.Router2.eth[2].mac "rx channel utilization (%)" 0.000273472
scalar v3_mesh.Router2.eth[2].mac rxPausePkUnits:count 0
attr interpolationmode none
attr recordingmode count
attr title "pause units received, count"
scalar v3_mesh.Router2.eth[2].mac rxPausePkUnits:sum 0
attr interpolationmode none
attr recordingmode sum
attr title "pause units received, sum"
scalar v3_mesh.Router2.eth[2].mac txPausePkUnits:count 0
attr interpolationmode none
attr recordingmode count
attr title "pause units sent, count"
scalar v3_mesh.Router2.eth[2].mac txPausePkUnits:sum 0
attr interpolationmode none
attr recordingmode sum
attr title "pause units sent, sum"
scalar v3_mesh.Router2.eth[2].mac rxPkOk:count 138
attr interpolationmode none
attr recordingmode count
attr source rxPkOk
attr title "packets received OK, count"
scalar v3_mesh.Router2.eth[2].mac rxPkOk:sum(packetBytes) 15988
attr interpolationmode none
attr recordingmode sum(packetBytes)
attr source rxPkOk
attr title "packets received OK, sum(packetBytes)"
statistic v3_mesh.Router2.eth[2].mac throughput:histogram
field count 5000
field mean 231.008
field stddev 4859.7848929533
field min 0
field max 240800
field sum 1155040
field sqrsum 118330752000
attr interpolationmode linear
attr recordingmode histogram
attr source throughput(transmissionEnded)
attr title throughput
attr unit bps
bin	-inf	0
bin	0	4942
bin	4800	47
bin	9600	4
bin	14400	1
bin	19200	1
bin	24000	0
bin	28800	0
bin	33600	0
bin	38400	1
bin	43200	0
bin	48000	0
bin	52800	0
bin	57600	0
bin	62400	0
bin	67200	0
bin	72000	0
bin	76800	0
bin	81600	0
bin	86400	0
bin	91200	0
bin	96000	1
bin	100800	0
bin	105600	0
bin	110400	0
bin	115200	0
bin	120000	0
bin	124800	0
bin	129600	1
bin	134400	0
[...]
attr source packetDropReasonIsNotAddressedToUs(packetDropped)
attr title "packet drop: not addressed to us, count"
scalar v3_mesh.Router6.eth[1].mac packetDropNotAddressedToUs:sum(packetBytes) 0
attr interpolationmode none
attr recordingmode sum(packetBytes)
attr source packetDropReasonIsNotAddressedToUs(packetDropped)
attr title "packet drop: not addressed to us, sum(packetBytes)"
scalar v3_mesh.Router6.eth[1] packetDropInterfaceDown:count 0
attr interpolationmode none
attr recordingmode count
attr source packetDropReasonIsInterfaceDown(packetDropped)
attr title "packet drops: interface down, count"
scalar v3_mesh.Router6.eth[1] packetDropInterfaceDown:sum(packetBytes) 0
attr interpolationmode none
attr recordingmode sum(packetBytes)
attr source packetDropReasonIsInterfaceDown(packetDropped)
attr title "packet drops: interface down, sum(packetBytes)"
scalar v3_mesh.Router6.eth[1] packetDropNoCarrier:count 0
attr interpolationmode none
attr recordingmode count
attr source packetDropReasonIsNoCarrier(packetDropped)
attr title "packet drops: no carrier, count"
scalar v3_mesh.Router6.eth[1] packetDropNoCarrier:sum(packetBytes) 0
attr interpolationmode none
attr recordingmode sum(packetBytes)
attr source packetDropReasonIsNoCarrier(packetDropped)
attr title "packet drops: no carrier, sum(packetBytes)"
scalar v3_mesh.Router6.eth[2].queue queueLength:last 0
attr autoWarmupFilter false
attr interpolationmode sample-hold
attr recordingmode last
attr source "warmup(atomic(constant0(packetPushEnded) + count(packetPushStarted) - count(packetPulled) - count(packetRemoved) - count(packetDropped)))"
attr title "queue length, last"
attr unit pk
scalar v3_mesh.Router6.eth[2].queue queueLength:max 23
attr autoWarmupFilter false
attr interpolationmode sample-hold
attr recordingmode max
attr source "warmup(atomic(constant0(packetPushEnded) + count(packetPushStarted) - count(packetPulled) - count(packetRemoved) - count(packetDropped)))"
attr title "queue length, max"
attr unit pk
scalar v3_mesh.Router6.eth[2].queue queueLength:timeavg 1.3247e-05
attr autoWarmupFilter false
attr interpolationmode sample-hold
attr recordingmode timeavg
attr source "warmup(atomic(constant0(packetPushEnded) + count(packetPushStarted) - count(packetPulled) - count(packetRemoved) - count(packetDropped)))"
attr title "queue length, timeavg"
attr unit pk
scalar v3_mesh.Router6.eth[2].queue queueBitLength:last 0
attr autoWarmupFilter false
attr interpolationmode sample-hold
attr recordingmode last
attr source "warmup(atomic(constant0(packetPushEnded) + sum(packetLength(packetPushStarted)) - sum(packetLength(packetPulled)) - sum(packetLength(packetRemoved)) - sum(packetLength(packetDropped))))"
attr title "queue bit length, last"
attr unit b
scalar v3_mesh.Router6.eth[2].queue queueBitLength:max 21968
attr autoWarmupFilter false
attr interpolationmode sample-hold
attr recordingmode max
attr source "warmup(atomic(constant0(packetPushEnded) + sum(packetLength(packetPushStarted)) - sum(packetLength(packetPulled)) - sum(packetLength(packetRemoved)) - sum(packetLength(packetDropped))))"
attr title "queue bit length, max"
attr unit b
scalar v3_mesh.Router6.eth[2].queue queueBitLength:timeavg 0.01237968576
attr autoWarmupFilter false
attr interpolationmode sample-hold
attr recordingmode timeavg
attr source "warmup(atomic(constant0(packetPushEnded) + sum(packetLength(packetPushStarted)) - sum(packetLength(packetPulled)) - sum(packetLength(packetRemoved)) - sum(packetLength(packetDropped))))"
attr title "queue bit length, timeavg"
attr unit b
statistic v3_mesh.Router6.eth[2].queue queueingTime:histogram
field count 138
field mean 4.7996376811594e-05
field stddev 6.9820438863753e-05
field min 0
field max 0.00024502
field sum 0.0066235
field sqrsum 9.857644364e-07
attr interpolationmode none
attr recordingmode histogram
attr source queueingTime(packetPulled)
attr title "queueing times"
attr unit s
bin	-inf	0
bin	0	66
bin	5e-06	2
bin	1e-05	6
bin	1.5e-05	0
bin	2e-05	4
bin	2.5e-05	3
bin	3e-05	6
bin	3.5e-05	5
bin	4e-05	3
bin	4.5e-05	2
bin	5e-05	2
bin	5.5e-05	2
bin	6e-05	2
bin	6.5e-05	1
bin	7e-05	1
bin	7.5e-05	2
bin	8e-05	1
bin	8.5e-05	1
bin	9e-05	1
bin	9.5e-05	1
bin	0.0001	1
bin	0.000105	1
bin	0.00011	1
bin	0.000115	1
bin	0.00012	0
bin	0.000125	1
bin	0.00013	1
bin	0.000135	1
bin	0.00014	0
bin	0.000145	2
bin	0.00015	2
bin	0.000155	0
bin	0.00016	1
bin	0.000165	1
bin	0.00017	0
bin	0.000175	1
bin	0.00018	0
bin	0.000185	1
bin	0.00019	0
bin	0.000195	2
bin	0.0002	1
bin	0.000205	1
bin	0.00021	1
bin	0.000215	3
bin	0.00022	0
bin	0.000225	1
bin	0.00023	1
bin	0.000235	1
bin	0.00024	0
bin	0.000245	1
bin	0.00025	0
bin	0.000255	0
bin	0.00026	0
bin	0.000265	0
bin	0.00027	0
bin	0.000275	0
bin	0.00028	0
bin	0.000285	0
bin	0.00029	0
bin	0.000295	0
bin	0.0003	0
bin	0.000305	0
bin	0.00031	0
scalar v3_mesh.Router6.eth[2].queue outgoingPackets:count 138
attr recordingmode count
attr source packetPulled
attr title "outgoing packets, count"
attr unit pk
scalar v3_mesh.Router6.eth[2].queue outgoingPacketLengths:sum 127904
attr interpolationmode none
attr recordingmode sum
attr source packetLength(packetPulled)
attr title "outgoing packet lengths, sum"
attr unit b
statistic v3_mesh.Router6.eth[2].queue outgoingPacketLengths:histogram
field count 138
field mean 926.84057971014
field stddev 408.63388654366
field min 688
field max 4912
field sum 127904
field sqrsum 141423104
attr interpolationmode none
attr recordingmode histogram
attr source packetLength(packetPulled)
attr title "outgoing packet lengths"
attr unit b
bin	-inf	0
bin	0	0
bin	100	0
bin	200	0
bin	300	0
bin	400	0
bin	500	0
bin	600	2
bin	700	71
bin	800	15
bin	900	20
bin	1000	15
bin	1100	5
bin	1200	7
bin	1300	0
bin	1400	0
bin	1500	0
bin	1600	1
bin	1700	0
bin	1800	0
bin	1900	0
bin	2000	0
bin	2100	0
bin	2200	0
bin	2300	0
bin	2400	0
bin	2500	0
bin	2600	0
bin	2700	1
bin	2800	0
bin	2900	0
bin	3000	0
bin	3100	0
bin	3200	0
bin	3300	0
bin	3400	0
bin	3500	0
bin	3600	0
bin	3700	0
bin	3800	0
bin	3900	0
bin	4000	0
bin	4100	0
bin	4200	0
bin	4300	0
bin	4400	0
bin	4500	0
bin	4600	0
bin	4700	0
bin	4800	0
bin	4900	1
bin	5000	0
bin	5100	0
bin	5200	0
bin	5300	0
bin	5400	0
bin	5500	0
bin	5600	0
bin	5700	0
bin	5800	0
bin	5900	0
bin	6000	0
statistic v3_mesh.Router6.eth[2].queue flowQueueingTime:histogram
field count 0
field mean -nan
field stddev nan
field min nan
field max nan
field sum 0
field sqrsum 0
attr interpolationmode none
attr recordingmode histogram
attr source queueingTime(demuxFlow(packetPulled))
attr title "flow queueing times"
attr unit s
bin	-inf	0
bin	0	0
bin	1	0
scalar v3_mesh.Router6.eth[2].queue incomingPackets:count 138
attr recordingmode count
attr source packetPushStarted
attr title "incoming packets, count"
attr unit pk
scalar v3_mesh.Router6.eth[2].queue incomingPacketLengths:sum 127904
attr interpolationmode none
attr recordingmode sum
attr source packetLength(packetPushStarted)
attr title "incoming packet lengths, sum"
attr unit b
statistic v3_mesh.Router6.eth[2].queue incomingPacketLengths:histogram
field count 138
field mean 926.84057971014
field stddev 408.63388654366
field min 688
field max 4912
field sum 127904
field sqrsum 141423104
attr interpolationmode none
attr recordingmode histogram
attr source packetLength(packetPushStarted)
attr title "incoming packet lengths"
attr unit b
bin	-inf	0
bin	0	0
bin	100	0
bin	200	0
bin	300	0
bin	400	0
bin	500	0
bin	600	2
bin	700	71
bin	800	15
bin	900	20
bin	1000	15
bin	1100	5
bin	1200	7
bin	1300	0
bin	1400	0
bin	1500	0
bin	1600	1
bin	1700	0
bin	1800	0
bin	1900	0
bin	2000	0
bin	2100	0
bin	2200	0
bin	2300	0
bin	2400	0
bin	2500	0
bin	2600	0
bin	2700	1
bin	2800	0
bin	2900	0
bin	3000	0
bin	3100	0
bin	3200	0
bin	3300	0
bin	3400	0
bin	3500	0
bin	3600	0
bin	3700	0
bin	3800	0
bin	3900	0
bin	4000	0
bin	4100	0
bin	4200	0
bin	4300	0
bin	4400	0
bin	4500	0
bin	4600	0
bin	4700	0
bin	4800	0
bin	4900	1
bin	5000	0
bin	5100	0
bin	5200	0
bin	5300	0
bin	5400	0
bin	5500	0
bin	5600	0
bin	5700	0
bin	5800	0
bin	5900	0
bin	6000	0
scalar v3_mesh.Router6.eth[2].queue droppedPacketsQueueOverflow:count 0
attr interpolationmode none
attr recordingmode count
attr source packetDropReasonIsQueueOverflow(packetDropped)
attr title "dropped packets: queue overflow, count"
attr unit pk
scalar v3_mesh.Router6.eth[2].queue droppedPacketLengthsQueueOverflow:sum 0
attr interpolationmode none
attr recordingmode sum
attr source packetLength(packetDropReasonIsQueueOverflow(packetDropped))
attr title "dropped packet lengths: queue overflow, sum"
attr unit b
scalar v3_mesh.Router6.eth[2].mac "simulated time" 500
scalar v3_mesh.Router6.eth[2].mac full-duplex 1
scalar v3_mesh.Router6.eth[2].mac "frames/sec sent" 0.276
scalar v3_mesh.Router6.eth[2].mac "frames/sec rcvd" 0.242
scalar v3_mesh.Router6.eth[2].mac "bits/sec sent" 255.808
scalar v3_mesh.Router6.eth[2].mac "bits/sec rcvd" 215.52
scalar v3_mesh.Router6.eth[2].mac "rx channel idle (%)" 99.999768992
scalar v3_mesh.Router6.eth[2].mac "rx channel utilization (%)" 0.000231008
scalar v3_mesh.Router6.eth[2].mac rxPausePkUnits:count 0
attr interpolationmode none
attr recordingmode count
attr title "pause units received, count"
scalar v3_mesh.Router6.eth[2].mac rxPausePkUnits:sum 0
attr interpolationmode none
attr recordingmode sum
attr title "pause units received, sum"
scalar v3_mesh.Router6.eth[2].mac txPausePkUnits:count 0
attr interpolationmode none
attr recordingmode count
attr title "pause units sent, count"
scalar v3_mesh.Router6.eth[2].mac txPausePkUnits:sum 0
attr interpolationmode none
attr recordingmode sum
attr title "pause units sent, sum"
scalar v3_mesh.Router6.eth[2].mac rxPkOk:count 121
attr interpolationmode none
attr recordingmode count
attr source rxPkOk
attr title "packets received OK, count"
scalar v3_mesh.Router6.eth[2].mac rxPkOk:sum(packetBytes) 13470
attr interpolationmode none
attr recordingmode sum(packetBytes)
attr source rxPkOk
attr title "packets received OK, sum(packetBytes)"
statistic v3_mesh.Router6.eth[2].mac throughput:histogram
field count 5000
field mean 273.472
field stddev 6590.9358631629
field min 0
field max 368000
field sum 1367360
field sqrsum 217532672000
attr interpolationmode linear
attr recordingmode histogram
attr source throughput(transmissionEnded)
attr title throughput
attr unit bps
bin	-inf	0
bin	0	4991
bin	9000	4
bin	18000	0
bin	27000	0
bin	36000	0
bin	45000	0
bin	54000	0
bin	63000	0
bin	72000	0
bin	81000	1
bin	90000	0
bin	99000	1
bin	108000	0
bin	117000	0
bin	126000	0
bin	135000	0
bin	144000	0
bin	153000	0
bin	162000	1
bin	171000	1
bin	180000	0
bin	189000	0
bin	198000	0
bin	207000	0
bin	216000	0
bin	225000	0
bin	234000	0
bin	243000	0
bin	252000	0
bin	261000	0
bin	270000	0
bin	279000	0
bin	288000	0
bin	297000	0
bin	306000	0
bin	315000	0
bin	324000	0
bin	333000	0
bin	342000	0
bin	351000	0
bin	360000	1
bin	369000	0
statistic v3_mesh.Router6.eth[2].mac utilization:histogram
field count 5000
field mean 0.000273472
field stddev 0.0065909358631629
field min 0
field max 0.368
field sum 1.36736
field sqrsum 0.217532672
attr interpolationmode linear
attr recordingmode histogram
attr source "100 * utilization(count(transmissionStarted) - count(transmissionEnded))"
attr title utilization
attr unit %
bin	-inf	0
bin	0	4991
bin	0.009	4
bin	0.018	0
bin	0.027	0
bin	0.036	0
bin	0.045	0
bin	0.054	0
bin	0.063	0
bin	0.072	0
bin	0.081	1
bin	0.09	0
bin	0.099	1
bin	0.108	0
bin	0.117	0
bin	0.126	0
bin	0.135	0
bin	0.144	0
bin	0.153	0
bin	0.162	1
bin	0.171	1
bin	0.18	0
bin	0.189	0
bin	0.198	0
bin	0.207	0
bin	0.216	0
bin	0.225	0
bin	0.234	0
bin	0.243	0
bin	0.252	0
bin	0.261	0
bin	0.27	0
bin	0.279	0
bin	0.288	0
bin	0.297	0
bin	0.306	0
bin	0.315	0
bin	0.324	0
bin	0.333	0
bin	0.342	0
bin	0.351	0
bin	0.36	1
bin	0.369	0
scalar v3_mesh.Router6.eth[2].mac txPk:count 138
attr interpolationmode none
attr recordingmode count
attr source packetSentToLower
attr title "packets transmitted, count"
scalar v3_mesh.Router6.eth[2].mac txPk:sum(packetBytes) 15988
attr interpolationmode none
attr recordingmode sum(packetBytes)
attr source packetSentToLower
attr title "packets transmitted, sum(packetBytes)"
scalar v3_mesh.Router6.eth[2].mac packetReceivedFromUpper:count 138
attr interpolationmode none
attr recordingmode count
attr source packetReceivedFromUpper
attr title "packet bytes from higher layer, count"
scalar v3_mesh.Router6.eth[2].mac packetReceivedFromUpper:sum(packetBytes) 15988
attr interpolationmode none
attr recordingmode sum(packetBytes)
attr source packetReceivedFromUpper
attr title "packet bytes from higher layer, sum(packetBytes)"
scalar v3_mesh.Router6.eth[2].mac passedUpPk:count 121
attr interpolationmode none
attr recordingmode count
attr source packetSentToUpper
attr title "packets passed to higher layer, count"
scalar v3_mesh.Router6.eth[2].mac passedUpPk:sum(packetBytes) 13470
attr interpolationmode none
attr recordingmode sum(packetBytes)
attr source packetSentToUpper
attr title "packets passed to higher layer, sum(packetBytes)"
scalar v3_mesh.Router6.eth[2].mac packetDropIncorrectlyReceived:count 0
attr interpolationmode none
attr recordingmode count
attr source packetDropReasonIsIncorrectlyReceived(packetDropped)
attr title "packet drop: incorrectly received, count"
scalar v3_mesh.Router6.eth[2].mac packetDropIncorrectlyReceived:sum(packetBytes) 0
attr interpolationmode none
attr recordingmode sum(packetBytes)
attr source packetDropReasonIsIncorrectlyReceived(packetDropped)
attr title "packet drop: incorrectly received, sum(packetBytes)"
scalar v3_mesh.Router6.eth[2].mac packetDropInterfaceDown:count 0
attr interpolationmode none
attr recordingmode count
attr source packetDropReasonIsInterfaceDown(packetDropped)
attr title "packet drop: interface down, count"
scalar v3_mesh.Router6.eth[2].mac packetDropInterfaceDown:sum(packetBytes) 0
attr interpolationmode none
attr recordingmode sum(packetBytes)
attr source packetDropReasonIsInterfaceDown(packetDropped)
attr title "packet drop: interface down, sum(packetBytes)"
scalar v3_mesh.Router6.eth[2].mac packetDropNotAddressedToUs:count 0
attr interpolationmode none
attr recordingmode count
attr source packetDropReasonIsNotAddressedToUs(packetDropped)
attr title "packet drop: not addressed to us, count"
scalar v3_mesh.Router6.eth[2].mac packetDropNotAddressedToUs:sum(packetBytes) 0
attr interpolationmode none
attr recordingmode sum(packetBytes)
attr source packetDropReasonIsNotAddressedToUs(packetDropped)
attr title "packet drop: not addressed to us, sum(packetBytes)"
scalar v3_mesh.Router6.eth[2] packetDropInterfaceDown:count 0
attr interpolationmode none
attr recordingmode count
attr source packetDropReasonIsInterfaceDown(packetDropped)
attr title "packet drops: interface down, count"
scalar v3_mesh.Router6.eth[2] packetDropInterfaceDown:sum(packetBytes) 0
attr interpolationmode none
attr recordingmode sum(packetBytes)
attr source packetDropReasonIsInterfaceDown(packetDropped)
attr title "packet drops: interface down, sum(packetBytes)"
scalar v3_mesh.Router6.eth[2] packetDropNoCarrier:count 0
attr interpolationmode none
attr recordingmode count
attr source packetDropReasonIsNoCarrier(packetDropped)
attr title "packet drops: no carrier, count"
scalar v3_mesh.Router6.eth[2] packetDropNoCarrier:sum(packetBytes) 0
attr interpolationmode none
attr recordingmode sum(packetBytes)
attr source packetDropReasonIsNoCarrier(packetDropped)
attr title "packet drops: no carrier, sum(packetBytes)"
scalar v3_mesh.Router6.ipv4.ip packetDropAddressResolutionFailed:count 0
attr interpolationmode none
attr recordingmode count
attr source packetDropReasonIsAddressResolutionFailed(packetDropped)
attr title "packet drop: address resolution failed, count"
scalar v3_mesh.Router6.ipv4.ip packetDropAddressResolutionFailed:sum(packetBytes) 0
attr interpolationmode none
attr recordingmode sum(packetBytes)
attr source packetDropReasonIsAddressResolutionFailed(packetDropped)
attr title "packet drop: address resolution failed, sum(packetBytes)"
scalar v3_mesh.Router6.ipv4.ip packetDropHopLimitReached:count 0
attr interpolationmode none
attr recordingmode count
attr source packetDropReasonIsHopLimitReached(packetDropped)
attr title "packet drop: hop limit reached, count"
scalar v3_mesh.Router6.ipv4.ip packetDropHopLimitReached:sum(packetBytes) 0
attr interpolationmode none
attr recordingmode sum(packetBytes)
attr source packetDropReasonIsHopLimitReached(packetDropped)
attr title "packet drop: hop limit reached, sum(packetBytes)"
scalar v3_mesh.Router6.ipv4.ip packetDropForwardingDisabled:count 0
attr interpolationmode none
attr recordingmode count
attr source packetDropReasonIsForwardingDisabled(packetDropped)
attr title "packet drop: forwarding disabled, count"
scalar v3_mesh.Router6.ipv4.ip packetDropForwardingDisabled:sum(packetBytes) 0
attr interpolationmode none
attr recordingmode sum(packetBytes)
attr source packetDropReasonIsForwardingDisabled(packetDropped)
attr title "packet drop: forwarding disabled, sum(packetBytes)"
scalar v3_mesh.Router6.ipv4.ip packetDropLifetimeExpired:count 0
attr interpolationmode none
attr recordingmode count
attr source packetDropReasonIsLifetimeExpired(packetDropped)
attr title "packet drop: lifetime expired, count"
scalar v3_mesh.Router6.ipv4.ip packetDropLifetimeExpired:sum(packetBytes) 0
attr interpolationmode none
attr recordingmode sum(packetBytes)
attr source packetDropReasonIsLifetimeExpired(packetDropped)
attr title "packet drop: lifetime expired, sum(packetBytes)"
scalar v3_mesh.Router6.ipv4.ip packetDropNoInterfaceFound:count 0
attr interpolationmode none
attr recordingmode count
attr source packetDropReasonIsNoInterfaceFound(packetDropped)
attr title "packet drop: no interface found, count"
scalar v3_mesh.Router6.ipv4.ip packetDropNoInterfaceFound:sum(packetBytes) 0
attr interpolationmode none
attr recordingmode sum(packetBytes)
attr source packetDropReasonIsNoInterfaceFound(packetDropped)
attr title "packet drop: no interface found, sum(packetBytes)"
scalar v3_mesh.Router6.ipv4.ip packetDropNoRouteFound:count 0
attr interpolationmode none
attr recordingmode count
attr source packetDropReasonIsNoRouteFound(packetDropped)
attr title "packet drop: no route found, count"
scalar v3_mesh.Router6.ipv4.ip packetDropNoRouteFound:sum(packetBytes) 0
attr interpolationmode none
attr recordingmode sum(packetBytes)
attr source packetDropReasonIsNoRouteFound(packetDropped)
attr title "packet drop: no route found, sum(packetBytes)"
scalar v3_mesh.Router6.ipv4.ip packetDropUndefined:count 0
attr interpolationmode none
attr recordingmode count
attr source packetDropReasonIsUndefined(packetDropped)
attr title "packet drop: undefined, count"
scalar v3_mesh.Router6.ipv4.ip packetDropUndefined:sum(packetBytes) 0
attr interpolationmode none
attr recordingmode sum(packetBytes)
attr source packetDropReasonIsUndefined(packetDropped)
attr title "packet drop: undefined, sum(packetBytes)"
scalar v3_mesh.Router6.ipv4.arp arpResolutionFailed:count 0
attr recordingmode count
attr title "ARP failed resolutions, count"
scalar v3_mesh.Router6.ipv4.arp arpResolutionCompleted:count 0
attr recordingmode count
attr title "ARP completed resolutions, count"
scalar v3_mesh.Router6.ipv4.arp arpResolutionInitiated:count 0
attr recordingmode count
attr title "ARP initiated resolutions, count"
scalar v3_mesh.Router6.ipv4.arp arpReplySent:count 0
attr recordingmode count
attr source arpReplySent
attr title "ARP replies sent, count"
scalar v3_mesh.Router6.ipv4.arp arpReplySent:sum(packetBytes) 0
attr recordingmode sum(packetBytes)
attr source arpReplySent
attr title "ARP replies sent, sum(packetBytes)"
scalar v3_mesh.Router6.ipv4.arp arpRequestSent:count 0
attr recordingmode count
attr source arpRequestSent
attr title "ARP request sent, count"
scalar v3_mesh.Router6.ipv4.arp arpRequestSent:sum(packetBytes) 0
attr recordingmode sum(packetBytes)
attr source arpRequestSent
attr title "ARP request sent, sum(packetBytes)"
scalar v3_mesh.Router6.ipv6.neighbourDiscovery startDad:count 0
attr recordingmode count
attr title "DAD started, count"

