version 3
run General-0-20260629-19:38:25-3035319
attr configname General
attr datetime 20260629-19:38:25
attr datetimef 20260629-193825
attr experiment General
attr inifile omnetpp.ini
attr iterationvars ""
attr iterationvarsd ""
attr iterationvarsf ""
attr measurement ""
attr network v3_mesh
attr processid 3035319
attr repetition 0
attr replication #0
attr resultdir results
attr runnumber 0
attr seedset 0
config **.param-recording false
config image-path /home/andras/projects/inet/images
config output-scalar-file results/omnetpp.ini-General-#0.sca
config output-scalar-precision 17
config output-vector-file results/omnetpp.ini-General-#0.vec
config output-vector-precision 17
config record-eventlog false
config sim-time-limit 500s
config sim-time-limit 500s
config network v3_mesh
config **.Router1.ospf.ospfv3Splitter.ospfv3RoutingConfig "xmldoc(\"config.xml\", \"Devices/Router[@id='Router1']/Routing6/OSPFv3\")"
config **.Router2.ospf.ospfv3Splitter.ospfv3RoutingConfig "xmldoc(\"config.xml\", \"Devices/Router[@id='Router2']/Routing6/OSPFv3\")"
config **.Router3.ospf.ospfv3Splitter.ospfv3RoutingConfig "xmldoc(\"config.xml\", \"Devices/Router[@id='Router3']/Routing6/OSPFv3\")"
config **.Router4.ospf.ospfv3Splitter.ospfv3RoutingConfig "xmldoc(\"config.xml\", \"Devices/Router[@id='Router4']/Routing6/OSPFv3\")"
config **.Router5.ospf.ospfv3Splitter.ospfv3RoutingConfig "xmldoc(\"config.xml\", \"Devices/Router[@id='Router5']/Routing6/OSPFv3\")"
config **.Router6.ospf.ospfv3Splitter.ospfv3RoutingConfig "xmldoc(\"config.xml\", \"Devices/Router[@id='Router6']/Routing6/OSPFv3\")"
config **.Router1.ospf.ospfv3Splitter.ospfv3IntConfig "xmldoc(\"config.xml\", \"Devices/Router[@id='Router1']/Interfaces\")"
config **.Router2.ospf.ospfv3Splitter.ospfv3IntConfig "xmldoc(\"config.xml\", \"Devices/Router[@id='Router2']/Interfaces\")"
config **.Router3.ospf.ospfv3Splitter.ospfv3IntConfig "xmldoc(\"config.xml\", \"Devices/Router[@id='Router3']/Interfaces\")"
config **.Router4.ospf.ospfv3Splitter.ospfv3IntConfig "xmldoc(\"config.xml\", \"Devices/Router[@id='Router4']/Interfaces\")"
config **.Router5.ospf.ospfv3Splitter.ospfv3IntConfig "xmldoc(\"config.xml\", \"Devices/Router[@id='Router5']/Interfaces\")"
config **.Router6.ospf.ospfv3Splitter.ospfv3IntConfig "xmldoc(\"config.xml\", \"Devices/Router[@id='Router6']/Interfaces\")"

scalar v3_mesh.Router1.ethernet pauseSent:count 0
scalar v3_mesh.Router1.ethernet pauseSent:sum 0
scalar v3_mesh.Router1.ethernet decapPk:count 575
scalar v3_mesh.Router1.ethernet decapPk:sum(packetBytes) 54296
scalar v3_mesh.Router1.ethernet encapPk:count 313
scalar v3_mesh.Router1.ethernet encapPk:sum(packetBytes) 28496
scalar v3_mesh.Router1.lo[0].lo rcvdPkFromHl:count 0
scalar v3_mesh.Router1.lo[0].lo rcvdPkFromHl:sum(packetBytes) 0
scalar v3_mesh.Router1.lo[0].lo passedUpPk:count 0
scalar v3_mesh.Router1.lo[0].lo passedUpPk:sum(packetBytes) 0
scalar v3_mesh.Router1.lo[0] packetDropInterfaceDown:count 0
scalar v3_mesh.Router1.lo[0] packetDropInterfaceDown:sum(packetBytes) 0
scalar v3_mesh.Router1.lo[0] packetDropNoCarrier:count 0
scalar v3_mesh.Router1.lo[0] packetDropNoCarrier:sum(packetBytes) 0
scalar v3_mesh.Router1.eth[0].queue queueLength:last 0
scalar v3_mesh.Router1.eth[0].queue queueLength:max 6
scalar v3_mesh.Router1.eth[0].queue queueLength:timeavg 2.2373599999999997e-06
scalar v3_mesh.Router1.eth[0].queue queueBitLength:last 0
scalar v3_mesh.Router1.eth[0].queue queueBitLength:max 5600
scalar v3_mesh.Router1.eth[0].queue queueBitLength:timeavg 0.0020731545599999997
scalar v3_mesh.Router1.eth[0].queue outgoingPackets:count 190
scalar v3_mesh.Router1.eth[0].queue outgoingPacketLengths:sum 165984
scalar v3_mesh.Router1.eth[0].queue incomingPackets:count 190
scalar v3_mesh.Router1.eth[0].queue incomingPacketLengths:sum 165984
scalar v3_mesh.Router1.eth[0].queue droppedPacketsQueueOverflow:count 0
scalar v3_mesh.Router1.eth[0].queue droppedPacketLengthsQueueOverflow:sum 0
scalar v3_mesh.Router1.eth[0].mac "simulated time" 500
scalar v3_mesh.Router1.eth[0].mac full-duplex 1
scalar v3_mesh.Router1.eth[0].mac "frames/sec sent" 0.38
scalar v3_mesh.Router1.eth[0].mac "frames/sec rcvd" 0.864
scalar v3_mesh.Router1.eth[0].mac "bits/sec sent" 331.968
scalar v3_mesh.Router1.eth[0].mac "bits/sec rcvd" 766.08
scalar v3_mesh.Router1.eth[0].mac "rx channel idle (%)" 99.999178624
scalar v3_mesh.Router1.eth[0].mac "rx channel utilization (%)" 0.000821376
scalar v3_mesh.Router1.eth[0].mac rxPausePkUnits:count 0
scalar v3_mesh.Router1.eth[0].mac rxPausePkUnits:sum 0
scalar v3_mesh.Router1.eth[0].mac txPausePkUnits:count 0
scalar v3_mesh.Router1.eth[0].mac txPausePkUnits:sum 0
scalar v3_mesh.Router1.eth[0].mac rxPkOk:count 432
scalar v3_mesh.Router1.eth[0].mac rxPkOk:sum(packetBytes) 47880
scalar v3_mesh.Router1.eth[0].mac txPk:count 190
scalar v3_mesh.Router1.eth[0].mac txPk:sum(packetBytes) 20748
scalar v3_mesh.Router1.eth[0].mac packetReceivedFromUpper:count 190
scalar v3_mesh.Router1.eth[0].mac packetReceivedFromUpper:sum(packetBytes) 20748
scalar v3_mesh.Router1.eth[0].mac passedUpPk:count 432
scalar v3_mesh.Router1.eth[0].mac passedUpPk:sum(packetBytes) 47880
scalar v3_mesh.Router1.eth[0].mac packetDropIncorrectlyReceived:count 0
scalar v3_mesh.Router1.eth[0].mac packetDropIncorrectlyReceived:sum(packetBytes) 0
scalar v3_mesh.Router1.eth[0].mac packetDropInterfaceDown:count 0
scalar v3_mesh.Router1.eth[0].mac packetDropInterfaceDown:sum(packetBytes) 0
scalar v3_mesh.Router1.eth[0].mac packetDropNotAddressedToUs:count 0
scalar v3_mesh.Router1.eth[0].mac packetDropNotAddressedToUs:sum(packetBytes) 0
scalar v3_mesh.Router1.eth[0] packetDropInterfaceDown:count 0
scalar v3_mesh.Router1.eth[0] packetDropInterfaceDown:sum(packetBytes) 0
scalar v3_mesh.Router1.eth[0] packetDropNoCarrier:count 0
scalar v3_mesh.Router1.eth[0] packetDropNoCarrier:sum(packetBytes) 0
scalar v3_mesh.Router1.eth[1].queue queueLength:last 0
scalar v3_mesh.Router1.eth[1].queue queueLength:max 13
scalar v3_mesh.Router1.eth[1].queue queueLength:timeavg 3.9974399999999995e-06
scalar v3_mesh.Router1.eth[1].queue queueBitLength:last 0
scalar v3_mesh.Router1.eth[1].queue queueBitLength:max 9776
scalar v3_mesh.Router1.eth[1].queue queueBitLength:timeavg 0.0033764441599999995
scalar v3_mesh.Router1.eth[1].queue outgoingPackets:count 123
scalar v3_mesh.Router1.eth[1].queue outgoingPacketLengths:sum 107056
scalar v3_mesh.Router1.eth[1].queue incomingPackets:count 123
scalar v3_mesh.Router1.eth[1].queue incomingPacketLengths:sum 107056
scalar v3_mesh.Router1.eth[1].queue droppedPacketsQueueOverflow:count 0
scalar v3_mesh.Router1.eth[1].queue droppedPacketLengthsQueueOverflow:sum 0
scalar v3_mesh.Router1.eth[1].mac "simulated time" 500
scalar v3_mesh.Router1.eth[1].mac full-duplex 1
scalar v3_mesh.Router1.eth[1].mac "frames/sec sent" 0.246
scalar v3_mesh.Router1.eth[1].mac "frames/sec rcvd" 0.286
scalar v3_mesh.Router1.eth[1].mac "bits/sec sent" 214.112
scalar v3_mesh.Router1.eth[1].mac "bits/sec rcvd" 268.256
scalar v3_mesh.Router1.eth[1].mac "rx channel idle (%)" 99.99971344000001
scalar v3_mesh.Router1.eth[1].mac "rx channel utilization (%)" 0.00028656
scalar v3_mesh.Router1.eth[1].mac rxPausePkUnits:count 0
scalar v3_mesh.Router1.eth[1].mac rxPausePkUnits:sum 0
scalar v3_mesh.Router1.eth[1].mac txPausePkUnits:count 0
scalar v3_mesh.Router1.eth[1].mac txPausePkUnits:sum 0
scalar v3_mesh.Router1.eth[1].mac rxPkOk:count 143
scalar v3_mesh.Router1.eth[1].mac rxPkOk:sum(packetBytes) 16766
scalar v3_mesh.Router1.eth[1].mac txPk:count 123
scalar v3_mesh.Router1.eth[1].mac txPk:sum(packetBytes) 13382
scalar v3_mesh.Router1.eth[1].mac packetReceivedFromUpper:count 123
scalar v3_mesh.Router1.eth[1].mac packetReceivedFromUpper:sum(packetBytes) 13382
scalar v3_mesh.Router1.eth[1].mac passedUpPk:count 143
scalar v3_mesh.Router1.eth[1].mac passedUpPk:sum(packetBytes) 16766
scalar v3_mesh.Router1.eth[1].mac packetDropIncorrectlyReceived:count 0
scalar v3_mesh.Router1.eth[1].mac packetDropIncorrectlyReceived:sum(packetBytes) 0
scalar v3_mesh.Router1.eth[1].mac packetDropInterfaceDown:count 0
scalar v3_mesh.Router1.eth[1].mac packetDropInterfaceDown:sum(packetBytes) 0
scalar v3_mesh.Router1.eth[1].mac packetDropNotAddressedToUs:count 0
scalar v3_mesh.Router1.eth[1].mac packetDropNotAddressedToUs:sum(packetBytes) 0
scalar v3_mesh.Router1.eth[1] packetDropInterfaceDown:count 0
scalar v3_mesh.Router1.eth[1] packetDropInterfaceDown:sum(packetBytes) 0
scalar v3_mesh.Router1.eth[1] packetDropNoCarrier:count 0
scalar v3_mesh.Router1.eth[1] packetDropNoCarrier:sum(packetBytes) 0
scalar v3_mesh.Router1.ipv4.ip packetDropAddressResolutionFailed:count 0
scalar v3_mesh.Router1.ipv4.ip packetDropAddressResolutionFailed:sum(packetBytes) 0
scalar v3_mesh.Router1.ipv4.ip packetDropHopLimitReached:count 0
scalar v3_mesh.Router1.ipv4.ip packetDropHopLimitReached:sum(packetBytes) 0
scalar v3_mesh.Router1.ipv4.ip packetDropForwardingDisabled:count 0
scalar v3_mesh.Router1.ipv4.ip packetDropForwardingDisabled:sum(packetBytes) 0
scalar v3_mesh.Router1.ipv4.ip packetDropLifetimeExpired:count 0
scalar v3_mesh.Router1.ipv4.ip packetDropLifetimeExpired:sum(packetBytes) 0
scalar v3_mesh.Router1.ipv4.ip packetDropNoInterfaceFound:count 0
scalar v3_mesh.Router1.ipv4.ip packetDropNoInterfaceFound:sum(packetBytes) 0
scalar v3_mesh.Router1.ipv4.ip packetDropNoRouteFound:count 0
scalar v3_mesh.Router1.ipv4.ip packetDropNoRouteFound:sum(packetBytes) 0
scalar v3_mesh.Router1.ipv4.ip packetDropUndefined:count 0
scalar v3_mesh.Router1.ipv4.ip packetDropUndefined:sum(packetBytes) 0
scalar v3_mesh.Router1.ipv4.arp arpResolutionFailed:count 0
scalar v3_mesh.Router1.ipv4.arp arpResolutionCompleted:count 0
scalar v3_mesh.Router1.ipv4.arp arpResolutionInitiated:count 0
scalar v3_mesh.Router1.ipv4.arp arpReplySent:count 0
scalar v3_mesh.Router1.ipv4.arp arpReplySent:sum(packetBytes) 0
scalar v3_mesh.Router1.ipv4.arp arpRequestSent:count 0
scalar v3_mesh.Router1.ipv4.arp arpRequestSent:sum(packetBytes) 0
scalar v3_mesh.Router1.ipv6.neighbourDiscovery dadFailed:count 0
scalar v3_mesh.Router1.ipv6.neighbourDiscovery dadCompleted:count 0
scalar v3_mesh.Router1.ipv6.neighbourDiscovery startDad:count 0
scalar v3_mesh.Router2.ethernet pauseSent:count 0
scalar v3_mesh.Router2.ethernet pauseSent:sum 0
scalar v3_mesh.Router2.ethernet decapPk:count 669
scalar v3_mesh.Router2.ethernet decapPk:sum(packetBytes) 62216
scalar v3_mesh.Router2.ethernet encapPk:count 473
scalar v3_mesh.Router2.ethernet encapPk:sum(packetBytes) 45136
scalar v3_mesh.Router2.lo[0].lo rcvdPkFromHl:count 0
scalar v3_mesh.Router2.lo[0].lo rcvdPkFromHl:sum(packetBytes) 0
scalar v3_mesh.Router2.lo[0].lo passedUpPk:count 0
scalar v3_mesh.Router2.lo[0].lo passedUpPk:sum(packetBytes) 0
scalar v3_mesh.Router2.lo[0] packetDropInterfaceDown:count 0
scalar v3_mesh.Router2.lo[0] packetDropInterfaceDown:sum(packetBytes) 0
scalar v3_mesh.Router2.lo[0] packetDropNoCarrier:count 0
scalar v3_mesh.Router2.lo[0] packetDropNoCarrier:sum(packetBytes) 0
scalar v3_mesh.Router2.eth[0].queue queueLength:last 0
scalar v3_mesh.Router2.eth[0].queue queueLength:max 13
scalar v3_mesh.Router2.eth[0].queue queueLength:timeavg 1.2532039999999999e-05
scalar v3_mesh.Router2.eth[0].queue queueBitLength:last 0
scalar v3_mesh.Router2.eth[0].queue queueBitLength:max 12240
scalar v3_mesh.Router2.eth[0].queue queueBitLength:timeavg 0.0117495712
scalar v3_mesh.Router2.eth[0].queue outgoingPackets:count 217
scalar v3_mesh.Router2.eth[0].queue outgoingPacketLengths:sum 193712
scalar v3_mesh.Router2.eth[0].queue incomingPackets:count 217
scalar v3_mesh.Router2.eth[0].queue incomingPacketLengths:sum 193712
scalar v3_mesh.Router2.eth[0].queue droppedPacketsQueueOverflow:count 0
scalar v3_mesh.Router2.eth[0].queue droppedPacketLengthsQueueOverflow:sum 0
scalar v3_mesh.Router2.eth[0].mac "simulated time" 500
scalar v3_mesh.Router2.eth[0].mac full-duplex 1
scalar v3_mesh.Router2.eth[0].mac "frames/sec sent" 0.434
scalar v3_mesh.Router2.eth[0].mac "frames/sec rcvd" 0.81
scalar v3_mesh.Router2.eth[0].mac "bits/sec sent" 387.424
scalar v3_mesh.Router2.eth[0].mac "bits/sec rcvd" 710.624
scalar v3_mesh.Router2.eth[0].mac "rx channel idle (%)" 99.999237536
scalar v3_mesh.Router2.eth[0].mac "rx channel utilization (%)" 0.000762464
scalar v3_mesh.Router2.eth[0].mac rxPausePkUnits:count 0
scalar v3_mesh.Router2.eth[0].mac rxPausePkUnits:sum 0
scalar v3_mesh.Router2.eth[0].mac txPausePkUnits:count 0
scalar v3_mesh.Router2.eth[0].mac txPausePkUnits:sum 0
scalar v3_mesh.Router2.eth[0].mac rxPkOk:count 405
scalar v3_mesh.Router2.eth[0].mac rxPkOk:sum(packetBytes) 44414
scalar v3_mesh.Router2.eth[0].mac txPk:count 217
scalar v3_mesh.Router2.eth[0].mac txPk:sum(packetBytes) 24214
scalar v3_mesh.Router2.eth[0].mac packetReceivedFromUpper:count 217
scalar v3_mesh.Router2.eth[0].mac packetReceivedFromUpper:sum(packetBytes) 24214
scalar v3_mesh.Router2.eth[0].mac passedUpPk:count 405
scalar v3_mesh.Router2.eth[0].mac passedUpPk:sum(packetBytes) 44414
scalar v3_mesh.Router2.eth[0].mac packetDropIncorrectlyReceived:count 0
scalar v3_mesh.Router2.eth[0].mac packetDropIncorrectlyReceived:sum(packetBytes) 0
scalar v3_mesh.Router2.eth[0].mac packetDropInterfaceDown:count 0
scalar v3_mesh.Router2.eth[0].mac packetDropInterfaceDown:sum(packetBytes) 0
scalar v3_mesh.Router2.eth[0].mac packetDropNotAddressedToUs:count 0
scalar v3_mesh.Router2.eth[0].mac packetDropNotAddressedToUs:sum(packetBytes) 0
scalar v3_mesh.Router2.eth[0] packetDropInterfaceDown:count 0
scalar v3_mesh.Router2.eth[0] packetDropInterfaceDown:sum(packetBytes) 0
scalar v3_mesh.Router2.eth[0] packetDropNoCarrier:count 0
scalar v3_mesh.Router2.eth[0] packetDropNoCarrier:sum(packetBytes) 0
scalar v3_mesh.Router2.eth[1].queue queueLength:last 0
scalar v3_mesh.Router2.eth[1].queue queueLength:max 9
scalar v3_mesh.Router2.eth[1].queue queueLength:timeavg 4.53828e-06
scalar v3_mesh.Router2.eth[1].queue queueBitLength:last 0
scalar v3_mesh.Router2.eth[1].queue queueBitLength:max 8320
scalar v3_mesh.Router2.eth[1].queue queueBitLength:timeavg 0.00449785792
scalar v3_mesh.Router2.eth[1].queue outgoingPackets:count 135
scalar v3_mesh.Router2.eth[1].queue outgoingPacketLengths:sum 126896
scalar v3_mesh.Router2.eth[1].queue incomingPackets:count 135
scalar v3_mesh.Router2.eth[1].queue incomingPacketLengths:sum 126896
scalar v3_mesh.Router2.eth[1].queue droppedPacketsQueueOverflow:count 0
scalar v3_mesh.Router2.eth[1].queue droppedPacketLengthsQueueOverflow:sum 0
scalar v3_mesh.Router2.eth[1].mac "simulated time" 500
scalar v3_mesh.Router2.eth[1].mac full-duplex 1
scalar v3_mesh.Router2.eth[1].mac "frames/sec sent" 0.27
scalar v3_mesh.Router2.eth[1].mac "frames/sec rcvd" 0.252
scalar v3_mesh.Router2.eth[1].mac "bits/sec sent" 253.792
scalar v3_mesh.Router2.eth[1].mac "bits/sec rcvd" 221.44
scalar v3_mesh.Router2.eth[1].mac "rx channel idle (%)" 99.999762432
scalar v3_mesh.Router2.eth[1].mac "rx channel utilization (%)" 0.00023756799999999999
scalar v3_mesh.Router2.eth[1].mac rxPausePkUnits:count 0
scalar v3_mesh.Router2.eth[1].mac rxPausePkUnits:sum 0
scalar v3_mesh.Router2.eth[1].mac txPausePkUnits:count 0
scalar v3_mesh.Router2.eth[1].mac txPausePkUnits:sum 0
scalar v3_mesh.Router2.eth[1].mac rxPkOk:count 126
scalar v3_mesh.Router2.eth[1].mac rxPkOk:sum(packetBytes) 13840
scalar v3_mesh.Router2.eth[1].mac txPk:count 135
scalar v3_mesh.Router2.eth[1].mac txPk:sum(packetBytes) 15862
scalar v3_mesh.Router2.eth[1].mac packetReceivedFromUpper:count 135
scalar v3_mesh.Router2.eth[1].mac packetReceivedFromUpper:sum(packetBytes) 15862
scalar v3_mesh.Router2.eth[1].mac passedUpPk:count 126
scalar v3_mesh.Router2.eth[1].mac passedUpPk:sum(packetBytes) 13840
scalar v3_mesh.Router2.eth[1].mac packetDropIncorrectlyReceived:count 0
scalar v3_mesh.Router2.eth[1].mac packetDropIncorrectlyReceived:sum(packetBytes) 0
scalar v3_mesh.Router2.eth[1].mac packetDropInterfaceDown:count 0
scalar v3_mesh.Router2.eth[1].mac packetDropInterfaceDown:sum(packetBytes) 0
scalar v3_mesh.Router2.eth[1].mac packetDropNotAddressedToUs:count 0
scalar v3_mesh.Router2.eth[1].mac packetDropNotAddressedToUs:sum(packetBytes) 0
scalar v3_mesh.Router2.eth[1] packetDropInterfaceDown:count 0
scalar v3_mesh.Router2.eth[1] packetDropInterfaceDown:sum(packetBytes) 0
scalar v3_mesh.Router2.eth[1] packetDropNoCarrier:count 0
scalar v3_mesh.Router2.eth[1] packetDropNoCarrier:sum(packetBytes) 0
scalar v3_mesh.Router2.eth[2].queue queueLength:last 0
scalar v3_mesh.Router2.eth[2].queue queueLength:max 10
scalar v3_mesh.Router2.eth[2].queue queueLength:timeavg 3.3396399999999996e-06
scalar v3_mesh.Router2.eth[2].queue queueBitLength:last 0
scalar v3_mesh.Router2.eth[2].queue queueBitLength:max 7840
scalar v3_mesh.Router2.eth[2].queue queueBitLength:timeavg 0.00308257472
scalar v3_mesh.Router2.eth[2].queue outgoingPackets:count 121
scalar v3_mesh.Router2.eth[2].queue outgoingPacketLengths:sum 108592
scalar v3_mesh.Router2.eth[2].queue incomingPackets:count 121
scalar v3_mesh.Router2.eth[2].queue incomingPacketLengths:sum 108592
scalar v3_mesh.Router2.eth[2].queue droppedPacketsQueueOverflow:count 0
scalar v3_mesh.Router2.eth[2].queue droppedPacketLengthsQueueOverflow:sum 0
scalar v3_mesh.Router2.eth[2].mac "simulated time" 500
scalar v3_mesh.Router2.eth[2].mac full-duplex 1
scalar v3_mesh.Router2.eth[2].mac "frames/sec sent" 0.242
scalar v3_mesh.Router2.eth[2].mac "frames/sec rcvd" 0.276
scalar v3_mesh.Router2.eth[2].mac "bits/sec sent" 217.184
scalar v3_mesh.Router2.eth[2].mac "bits/sec rcvd" 256.064
scalar v3_mesh.Router2.eth[2].mac "rx channel idle (%)" 99.999726272
scalar v3_mesh.Router2.eth[2].mac "rx channel utilization (%)" 0.000273728
scalar v3_mesh.Router2.eth[2].mac rxPausePkUnits:count 0
scalar v3_mesh.Router2.eth[2].mac rxPausePkUnits:sum 0
scalar v3_mesh.Router2.eth[2].mac txPausePkUnits:count 0
scalar v3_mesh.Router2.eth[2].mac txPausePkUnits:sum 0
scalar v3_mesh.Router2.eth[2].mac rxPkOk:count 138
scalar v3_mesh.Router2.eth[2].mac rxPkOk:sum(packetBytes) 16004
scalar v3_mesh.Router2.eth[2].mac txPk:count 121
scalar v3_mesh.Router2.eth[2].mac txPk:sum(packetBytes) 13574
scalar v3_mesh.Router2.eth[2].mac packetReceivedFromUpper:count 121
scalar v3_mesh.Router2.eth[2].mac packetReceivedFromUpper:sum(packetBytes) 13574
scalar v3_mesh.Router2.eth[2].mac passedUpPk:count 138
scalar v3_mesh.Router2.eth[2].mac passedUpPk:sum(packetBytes) 16004
scalar v3_mesh.Router2.eth[2].mac packetDropIncorrectlyReceived:count 0
scalar v3_mesh.Router2.eth[2].mac packetDropIncorrectlyReceived:sum(packetBytes) 0
scalar v3_mesh.Router2.eth[2].mac packetDropInterfaceDown:count 0
scalar v3_mesh.Router2.eth[2].mac packetDropInterfaceDown:sum(packetBytes) 0
scalar v3_mesh.Router2.eth[2].mac packetDropNotAddressedToUs:count 0
scalar v3_mesh.Router2.eth[2].mac packetDropNotAddressedToUs:sum(packetBytes) 0
scalar v3_mesh.Router2.eth[2] packetDropInterfaceDown:count 0
scalar v3_mesh.Router2.eth[2] packetDropInterfaceDown:sum(packetBytes) 0
scalar v3_mesh.Router2.eth[2] packetDropNoCarrier:count 0
scalar v3_mesh.Router2.eth[2] packetDropNoCarrier:sum(packetBytes) 0
scalar v3_mesh.Router2.ipv4.ip packetDropAddressResolutionFailed:count 0
scalar v3_mesh.Router2.ipv4.ip packetDropAddressResolutionFailed:sum(packetBytes) 0
scalar v3_mesh.Router2.ipv4.ip packetDropHopLimitReached:count 0
scalar v3_mesh.Router2.ipv4.ip packetDropHopLimitReached:sum(packetBytes) 0
scalar v3_mesh.Router2.ipv4.ip packetDropForwardingDisabled:count 0
scalar v3_mesh.Router2.ipv4.ip packetDropForwardingDisabled:sum(packetBytes) 0
scalar v3_mesh.Router2.ipv4.ip packetDropLifetimeExpired:count 0
scalar v3_mesh.Router2.ipv4.ip packetDropLifetimeExpired:sum(packetBytes) 0
scalar v3_mesh.Router2.ipv4.ip packetDropNoInterfaceFound:count 0
scalar v3_mesh.Router2.ipv4.ip packetDropNoInterfaceFound:sum(packetBytes) 0
scalar v3_mesh.Router2.ipv4.ip packetDropNoRouteFound:count 0
scalar v3_mesh.Router2.ipv4.ip packetDropNoRouteFound:sum(packetBytes) 0
scalar v3_mesh.Router2.ipv4.ip packetDropUndefined:count 0
scalar v3_mesh.Router2.ipv4.ip packetDropUndefined:sum(packetBytes) 0
scalar v3_mesh.Router2.ipv4.arp arpResolutionFailed:count 0
scalar v3_mesh.Router2.ipv4.arp arpResolutionCompleted:count 0
scalar v3_mesh.Router2.ipv4.arp arpResolutionInitiated:count 0
scalar v3_mesh.Router2.ipv4.arp arpReplySent:count 0
scalar v3_mesh.Router2.ipv4.arp arpReplySent:sum(packetBytes) 0
scalar v3_mesh.Router2.ipv4.arp arpRequestSent:count 0
scalar v3_mesh.Router2.ipv4.arp arpRequestSent:sum(packetBytes) 0
scalar v3_mesh.Router2.ipv6.neighbourDiscovery dadFailed:count 0
scalar v3_mesh.Router2.ipv6.neighbourDiscovery dadCompleted:count 0
scalar v3_mesh.Router2.ipv6.neighbourDiscovery startDad:count 0
scalar v3_mesh.etherSwitch.bridging "processed frames" 0
scalar v3_mesh.etherSwitch.bridging "discarded frames" 0
scalar v3_mesh.etherSwitch.bridging "number of received BPDUs from STP module" 0
scalar v3_mesh.etherSwitch.bridging "number of received frames from network (including BPDUs)" 622
scalar v3_mesh.etherSwitch.bridging "number of dropped frames (including BPDUs)" 0
scalar v3_mesh.etherSwitch.bridging "number of delivered BPDUs to the STP module" 0
scalar v3_mesh.etherSwitch.bridging "number of dispatched BPDU frames to the network" 0
scalar v3_mesh.etherSwitch.bridging "number of dispatched non-BDPU frames to the network" 0
scalar v3_mesh.etherSwitch.bridging packetDropped:count 0
scalar v3_mesh.etherSwitch.bridging packetDropped:sum(packetBytes) 0
scalar v3_mesh.etherSwitch.ethernet pauseSent:count 0
scalar v3_mesh.etherSwitch.ethernet pauseSent:sum 0
scalar v3_mesh.etherSwitch.ethernet decapPk:count 622
scalar v3_mesh.etherSwitch.ethernet decapPk:sum(packetBytes) 57432
scalar v3_mesh.etherSwitch.ethernet encapPk:count 1244
scalar v3_mesh.etherSwitch.ethernet encapPk:sum(packetBytes) 114864
scalar v3_mesh.etherSwitch.eth[0].queue queueLength:last 0
scalar v3_mesh.etherSwitch.eth[0].queue queueLength:max 51
scalar v3_mesh.etherSwitch.eth[0].queue queueLength:timeavg 0.00011456796
scalar v3_mesh.etherSwitch.eth[0].queue queueBitLength:last 0
scalar v3_mesh.etherSwitch.eth[0].queue queueBitLength:max 45392
scalar v3_mesh.etherSwitch.eth[0].queue queueBitLength:timeavg 0.10002167616
scalar v3_mesh.etherSwitch.eth[0].queue outgoingPackets:count 432
scalar v3_mesh.etherSwitch.eth[0].queue outgoingPacketLengths:sum 383040
scalar v3_mesh.etherSwitch.eth[0].queue incomingPackets:count 432
scalar v3_mesh.etherSwitch.eth[0].queue incomingPacketLengths:sum 383040
scalar v3_mesh.etherSwitch.eth[0].queue droppedPacketsQueueOverflow:count 0
scalar v3_mesh.etherSwitch.eth[0].queue droppedPacketLengthsQueueOverflow:sum 0
scalar v3_mesh.etherSwitch.eth[0].mac "simulated time" 500
scalar v3_mesh.etherSwitch.eth[0].mac full-duplex 1
scalar v3_mesh.etherSwitch.eth[0].mac "frames/sec sent" 0.864
scalar v3_mesh.etherSwitch.eth[0].mac "frames/sec rcvd" 0.38
scalar v3_mesh.etherSwitch.eth[0].mac "bits/sec sent" 766.08
scalar v3_mesh.etherSwitch.eth[0].mac "bits/sec rcvd" 331.968
scalar v3_mesh.etherSwitch.eth[0].mac "rx channel idle (%)" 99.999643712
scalar v3_mesh.etherSwitch.eth[0].mac "rx channel utilization (%)" 0.000356288
scalar v3_mesh.etherSwitch.eth[0].mac rxPausePkUnits:count 0
scalar v3_mesh.etherSwitch.eth[0].mac rxPausePkUnits:sum 0
scalar v3_mesh.etherSwitch.eth[0].mac txPausePkUnits:count 0
scalar v3_mesh.etherSwitch.eth[0].mac txPausePkUnits:sum 0
scalar v3_mesh.etherSwitch.eth[0].mac rxPkOk:count 190
scalar v3_mesh.etherSwitch.eth[0].mac rxPkOk:sum(packetBytes) 20748
scalar v3_mesh.etherSwitch.eth[0].mac txPk:count 432
scalar v3_mesh.etherSwitch.eth[0].mac txPk:sum(packetBytes) 47880
scalar v3_mesh.etherSwitch.eth[0].mac packetReceivedFromUpper:count 432
scalar v3_mesh.etherSwitch.eth[0].mac packetReceivedFromUpper:sum(packetBytes) 47880
scalar v3_mesh.etherSwitch.eth[0].mac passedUpPk:count 190
scalar v3_mesh.etherSwitch.eth[0].mac passedUpPk:sum(packetBytes) 20748
scalar v3_mesh.etherSwitch.eth[0].mac packetDropIncorrectlyReceived:count 0
scalar v3_mesh.etherSwitch.eth[0].mac packetDropIncorrectlyReceived:sum(packetBytes) 0
scalar v3_mesh.etherSwitch.eth[0].mac packetDropInterfaceDown:count 0
scalar v3_mesh.etherSwitch.eth[0].mac packetDropInterfaceDown:sum(packetBytes) 0
scalar v3_mesh.etherSwitch.eth[0].mac packetDropNotAddressedToUs:count 0
scalar v3_mesh.etherSwitch.eth[0].mac packetDropNotAddressedToUs:sum(packetBytes) 0
scalar v3_mesh.etherSwitch.eth[0] packetDropInterfaceDown:count 0
scalar v3_mesh.etherSwitch.eth[0] packetDropInterfaceDown:sum(packetBytes) 0
scalar v3_mesh.etherSwitch.eth[0] packetDropNoCarrier:count 0
scalar v3_mesh.etherSwitch.eth[0] packetDropNoCarrier:sum(packetBytes) 0
scalar v3_mesh.etherSwitch.eth[1].queue queueLength:last 0
scalar v3_mesh.etherSwitch.eth[1].queue queueLength:max 36
scalar v3_mesh.etherSwitch.eth[1].queue queueLength:timeavg 7.511187999999999e-05
scalar v3_mesh.etherSwitch.eth[1].queue queueBitLength:last 0
scalar v3_mesh.etherSwitch.eth[1].queue queueBitLength:max 32384
scalar v3_mesh.etherSwitch.eth[1].queue queueBitLength:timeavg 0.0666789088
scalar v3_mesh.etherSwitch.eth[1].queue outgoingPackets:count 405
scalar v3_mesh.etherSwitch.eth[1].queue outgoingPacketLengths:sum 355312
scalar v3_mesh.etherSwitch.eth[1].queue incomingPackets:count 405
scalar v3_mesh.etherSwitch.eth[1].queue incomingPacketLengths:sum 355312
scalar v3_mesh.etherSwitch.eth[1].queue droppedPacketsQueueOverflow:count 0
scalar v3_mesh.etherSwitch.eth[1].queue droppedPacketLengthsQueueOverflow:sum 0
scalar v3_mesh.etherSwitch.eth[1].mac "simulated time" 500
scalar v3_mesh.etherSwitch.eth[1].mac full-duplex 1
scalar v3_mesh.etherSwitch.eth[1].mac "frames/sec sent" 0.81
scalar v3_mesh.etherSwitch.eth[1].mac "frames/sec rcvd" 0.434
scalar v3_mesh.etherSwitch.eth[1].mac "bits/sec sent" 710.624
scalar v3_mesh.etherSwitch.eth[1].mac "bits/sec rcvd" 387.424
scalar v3_mesh.etherSwitch.eth[1].mac "rx channel idle (%)" 99.9995848
scalar v3_mesh.etherSwitch.eth[1].mac "rx channel utilization (%)" 0.0004152
scalar v3_mesh.etherSwitch.eth[1].mac rxPausePkUnits:count 0
scalar v3_mesh.etherSwitch.eth[1].mac rxPausePkUnits:sum 0
scalar v3_mesh.etherSwitch.eth[1].mac txPausePkUnits:count 0
scalar v3_mesh.etherSwitch.eth[1].mac txPausePkUnits:sum 0
scalar v3_mesh.etherSwitch.eth[1].mac rxPkOk:count 217
scalar v3_mesh.etherSwitch.eth[1].mac rxPkOk:sum(packetBytes) 24214
scalar v3_mesh.etherSwitch.eth[1].mac txPk:count 405
scalar v3_mesh.etherSwitch.eth[1].mac txPk:sum(packetBytes) 44414
scalar v3_mesh.etherSwitch.eth[1].mac packetReceivedFromUpper:count 405
scalar v3_mesh.etherSwitch.eth[1].mac packetReceivedFromUpper:sum(packetBytes) 44414
scalar v3_mesh.etherSwitch.eth[1].mac passedUpPk:count 217
scalar v3_mesh.etherSwitch.eth[1].mac passedUpPk:sum(packetBytes) 24214
scalar v3_mesh.etherSwitch.eth[1].mac packetDropIncorrectlyReceived:count 0
scalar v3_mesh.etherSwitch.eth[1].mac packetDropIncorrectlyReceived:sum(packetBytes) 0
scalar v3_mesh.etherSwitch.eth[1].mac packetDropInterfaceDown:count 0
scalar v3_mesh.etherSwitch.eth[1].mac packetDropInterfaceDown:sum(packetBytes) 0
scalar v3_mesh.etherSwitch.eth[1].mac packetDropNotAddressedToUs:count 0
scalar v3_mesh.etherSwitch.eth[1].mac packetDropNotAddressedToUs:sum(packetBytes) 0
scalar v3_mesh.etherSwitch.eth[1] packetDropInterfaceDown:count 0
scalar v3_mesh.etherSwitch.eth[1] packetDropInterfaceDown:sum(packetBytes) 0
scalar v3_mesh.etherSwitch.eth[1] packetDropNoCarrier:count 0
scalar v3_mesh.etherSwitch.eth[1] packetDropNoCarrier:sum(packetBytes) 0
scalar v3_mesh.etherSwitch.eth[2].queue queueLength:last 0
scalar v3_mesh.etherSwitch.eth[2].queue queueLength:max 34
scalar v3_mesh.etherSwitch.eth[2].queue queueLength:timeavg 7.279571999999999e-05
scalar v3_mesh.etherSwitch.eth[2].queue queueBitLength:last 0
scalar v3_mesh.etherSwitch.eth[2].queue queueBitLength:max 31616
scalar v3_mesh.etherSwitch.eth[2].queue queueBitLength:timeavg 0.06596596416
scalar v3_mesh.etherSwitch.eth[2].queue outgoingPackets:count 407
scalar v3_mesh.etherSwitch.eth[2].queue outgoingPacketLengths:sum 359696
scalar v3_mesh.etherSwitch.eth[2].queue incomingPackets:count 407
scalar v3_mesh.etherSwitch.eth[2].queue incomingPacketLengths:sum 359696
scalar v3_mesh.etherSwitch.eth[2].queue droppedPacketsQueueOverflow:count 0
scalar v3_mesh.etherSwitch.eth[2].queue droppedPacketLengthsQueueOverflow:sum 0
scalar v3_mesh.etherSwitch.eth[2].mac "simulated time" 500
scalar v3_mesh.etherSwitch.eth[2].mac full-duplex 1
scalar v3_mesh.etherSwitch.eth[2].mac "frames/sec sent" 0.814
scalar v3_mesh.etherSwitch.eth[2].mac "frames/sec rcvd" 0.43
scalar v3_mesh.etherSwitch.eth[2].mac "bits/sec sent" 719.392
scalar v3_mesh.etherSwitch.eth[2].mac "bits/sec rcvd" 378.656
scalar v3_mesh.etherSwitch.eth[2].mac "rx channel idle (%)" 99.999593824
scalar v3_mesh.etherSwitch.eth[2].mac "rx channel utilization (%)" 0.00040617600000000006
scalar v3_mesh.etherSwitch.eth[2].mac rxPausePkUnits:count 0
scalar v3_mesh.etherSwitch.eth[2].mac rxPausePkUnits:sum 0
scalar v3_mesh.etherSwitch.eth[2].mac txPausePkUnits:count 0
scalar v3_mesh.etherSwitch.eth[2].mac txPausePkUnits:sum 0
scalar v3_mesh.etherSwitch.eth[2].mac rxPkOk:count 215
scalar v3_mesh.etherSwitch.eth[2].mac rxPkOk:sum(packetBytes) 23666
scalar v3_mesh.etherSwitch.eth[2].mac txPk:count 407
scalar v3_mesh.etherSwitch.eth[2].mac txPk:sum(packetBytes) 44962
scalar v3_mesh.etherSwitch.eth[2].mac packetReceivedFromUpper:count 407
scalar v3_mesh.etherSwitch.eth[2].mac packetReceivedFromUpper:sum(packetBytes) 44962
scalar v3_mesh.etherSwitch.eth[2].mac passedUpPk:count 215
scalar v3_mesh.etherSwitch.eth[2].mac passedUpPk:sum(packetBytes) 23666
scalar v3_mesh.etherSwitch.eth[2].mac packetDropIncorrectlyReceived:count 0
scalar v3_mesh.etherSwitch.eth[2].mac packetDropIncorrectlyReceived:sum(packetBytes) 0
scalar v3_mesh.etherSwitch.eth[2].mac packetDropInterfaceDown:count 0
scalar v3_mesh.etherSwitch.eth[2].mac packetDropInterfaceDown:sum(packetBytes) 0
scalar v3_mesh.etherSwitch.eth[2].mac packetDropNotAddressedToUs:count 0
scalar v3_mesh.etherSwitch.eth[2].mac packetDropNotAddressedToUs:sum(packetBytes) 0
scalar v3_mesh.etherSwitch.eth[2] packetDropInterfaceDown:count 0
scalar v3_mesh.etherSwitch.eth[2] packetDropInterfaceDown:sum(packetBytes) 0
scalar v3_mesh.etherSwitch.eth[2] packetDropNoCarrier:count 0
scalar v3_mesh.etherSwitch.eth[2] packetDropNoCarrier:sum(packetBytes) 0
scalar v3_mesh.Router3.ethernet pauseSent:count 0
scalar v3_mesh.Router3.ethernet pauseSent:sum 0
scalar v3_mesh.Router3.ethernet decapPk:count 542
scalar v3_mesh.Router3.ethernet decapPk:sum(packetBytes) 51068
scalar v3_mesh.Router3.ethernet encapPk:count 341
scalar v3_mesh.Router3.ethernet encapPk:sum(packetBytes) 31368
scalar v3_mesh.Router3.lo[0].lo rcvdPkFromHl:count 0
scalar v3_mesh.Router3.lo[0].lo rcvdPkFromHl:sum(packetBytes) 0
scalar v3_mesh.Router3.lo[0].lo passedUpPk:count 0
scalar v3_mesh.Router3.lo[0].lo passedUpPk:sum(packetBytes) 0
scalar v3_mesh.Router3.lo[0] packetDropInterfaceDown:count 0
scalar v3_mesh.Router3.lo[0] packetDropInterfaceDown:sum(packetBytes) 0
scalar v3_mesh.Router3.lo[0] packetDropNoCarrier:count 0
scalar v3_mesh.Router3.lo[0] packetDropNoCarrier:sum(packetBytes) 0
scalar v3_mesh.Router3.eth[0].queue queueLength:last 0
scalar v3_mesh.Router3.eth[0].queue queueLength:max 17
scalar v3_mesh.Router3.eth[0].queue queueLength:timeavg 1.5972e-05
scalar v3_mesh.Router3.eth[0].queue queueBitLength:last 0
scalar v3_mesh.Router3.eth[0].queue queueBitLength:max 15248
scalar v3_mesh.Router3.eth[0].queue queueBitLength:timeavg 0.01438179456
scalar v3_mesh.Router3.eth[0].queue outgoingPackets:count 215
scalar v3_mesh.Router3.eth[0].queue outgoingPacketLengths:sum 189328
scalar v3_mesh.Router3.eth[0].queue incomingPackets:count 215
scalar v3_mesh.Router3.eth[0].queue incomingPacketLengths:sum 189328
scalar v3_mesh.Router3.eth[0].queue droppedPacketsQueueOverflow:count 0
scalar v3_mesh.Router3.eth[0].queue droppedPacketLengthsQueueOverflow:sum 0
scalar v3_mesh.Router3.eth[0].mac "simulated time" 500
scalar v3_mesh.Router3.eth[0].mac full-duplex 1
scalar v3_mesh.Router3.eth[0].mac "frames/sec sent" 0.43
scalar v3_mesh.Router3.eth[0].mac "frames/sec rcvd" 0.814
scalar v3_mesh.Router3.eth[0].mac "bits/sec sent" 378.656
scalar v3_mesh.Router3.eth[0].mac "bits/sec rcvd" 719.392
scalar v3_mesh.Router3.eth[0].mac "rx channel idle (%)" 99.999228512
scalar v3_mesh.Router3.eth[0].mac "rx channel utilization (%)" 0.000771488
scalar v3_mesh.Router3.eth[0].mac rxPausePkUnits:count 0
scalar v3_mesh.Router3.eth[0].mac rxPausePkUnits:sum 0
scalar v3_mesh.Router3.eth[0].mac txPausePkUnits:count 0
scalar v3_mesh.Router3.eth[0].mac txPausePkUnits:sum 0
scalar v3_mesh.Router3.eth[0].mac rxPkOk:count 407
scalar v3_mesh.Router3.eth[0].mac rxPkOk:sum(packetBytes) 44962
scalar v3_mesh.Router3.eth[0].mac txPk:count 215
scalar v3_mesh.Router3.eth[0].mac txPk:sum(packetBytes) 23666
scalar v3_mesh.Router3.eth[0].mac packetReceivedFromUpper:count 215
scalar v3_mesh.Router3.eth[0].mac packetReceivedFromUpper:sum(packetBytes) 23666
scalar v3_mesh.Router3.eth[0].mac passedUpPk:count 407
scalar v3_mesh.Router3.eth[0].mac passedUpPk:sum(packetBytes) 44962
scalar v3_mesh.Router3.eth[0].mac packetDropIncorrectlyReceived:count 0
scalar v3_mesh.Router3.eth[0].mac packetDropIncorrectlyReceived:sum(packetBytes) 0
scalar v3_mesh.Router3.eth[0].mac packetDropInterfaceDown:count 0
scalar v3_mesh.Router3.eth[0].mac packetDropInterfaceDown:sum(packetBytes) 0
scalar v3_mesh.Router3.eth[0].mac packetDropNotAddressedToUs:count 0
scalar v3_mesh.Router3.eth[0].mac packetDropNotAddressedToUs:sum(packetBytes) 0
scalar v3_mesh.Router3.eth[0] packetDropInterfaceDown:count 0
scalar v3_mesh.Router3.eth[0] packetDropInterfaceDown:sum(packetBytes) 0
scalar v3_mesh.Router3.eth[0] packetDropNoCarrier:count 0
scalar v3_mesh.Router3.eth[0] packetDropNoCarrier:sum(packetBytes) 0
scalar v3_mesh.Router3.eth[1].queue queueLength:last 0
scalar v3_mesh.Router3.eth[1].queue queueLength:max 11
scalar v3_mesh.Router3.eth[1].queue queueLength:timeavg 5.507799999999999e-06
scalar v3_mesh.Router3.eth[1].queue queueBitLength:last 0
scalar v3_mesh.Router3.eth[1].queue queueBitLength:max 10640
scalar v3_mesh.Router3.eth[1].queue queueBitLength:timeavg 0.00474474048
scalar v3_mesh.Router3.eth[1].queue outgoingPackets:count 126
scalar v3_mesh.Router3.eth[1].queue outgoingPacketLengths:sum 110720
scalar v3_mesh.Router3.eth[1].queue incomingPackets:count 126
scalar v3_mesh.Router3.eth[1].queue incomingPacketLengths:sum 110720
scalar v3_mesh.Router3.eth[1].queue droppedPacketsQueueOverflow:count 0
scalar v3_mesh.Router3.eth[1].queue droppedPacketLengthsQueueOverflow:sum 0
scalar v3_mesh.Router3.eth[1].mac "simulated time" 500
scalar v3_mesh.Router3.eth[1].mac full-duplex 1
scalar v3_mesh.Router3.eth[1].mac "frames/sec sent" 0.252
scalar v3_mesh.Router3.eth[1].mac "frames/sec rcvd" 0.27
scalar v3_mesh.Router3.eth[1].mac "bits/sec sent" 221.44
scalar v3_mesh.Router3.eth[1].mac "bits/sec rcvd" 253.792
scalar v3_mesh.Router3.eth[1].mac "rx channel idle (%)" 99.999728928
scalar v3_mesh.Router3.eth[1].mac "rx channel utilization (%)" 0.00027107199999999997
scalar v3_mesh.Router3.eth[1].mac rxPausePkUnits:count 0
scalar v3_mesh.Router3.eth[1].mac rxPausePkUnits:sum 0
scalar v3_mesh.Router3.eth[1].mac txPausePkUnits:count 0
scalar v3_mesh.Router3.eth[1].mac txPausePkUnits:sum 0
scalar v3_mesh.Router3.eth[1].mac rxPkOk:count 135
scalar v3_mesh.Router3.eth[1].mac rxPkOk:sum(packetBytes) 15862
scalar v3_mesh.Router3.eth[1].mac txPk:count 126
scalar v3_mesh.Router3.eth[1].mac txPk:sum(packetBytes) 13840
scalar v3_mesh.Router3.eth[1].mac packetReceivedFromUpper:count 126
scalar v3_mesh.Router3.eth[1].mac packetReceivedFromUpper:sum(packetBytes) 13840
scalar v3_mesh.Router3.eth[1].mac passedUpPk:count 135
scalar v3_mesh.Router3.eth[1].mac passedUpPk:sum(packetBytes) 15862
scalar v3_mesh.Router3.eth[1].mac packetDropIncorrectlyReceived:count 0
scalar v3_mesh.Router3.eth[1].mac packetDropIncorrectlyReceived:sum(packetBytes) 0
scalar v3_mesh.Router3.eth[1].mac packetDropInterfaceDown:count 0
scalar v3_mesh.Router3.eth[1].mac packetDropInterfaceDown:sum(packetBytes) 0
scalar v3_mesh.Router3.eth[1].mac packetDropNotAddressedToUs:count 0
scalar v3_mesh.Router3.eth[1].mac packetDropNotAddressedToUs:sum(packetBytes) 0
scalar v3_mesh.Router3.eth[1] packetDropInterfaceDown:count 0
scalar v3_mesh.Router3.eth[1] packetDropInterfaceDown:sum(packetBytes) 0
scalar v3_mesh.Router3.eth[1] packetDropNoCarrier:count 0
scalar v3_mesh.Router3.eth[1] packetDropNoCarrier:sum(packetBytes) 0
scalar v3_mesh.Router3.ipv4.ip packetDropAddressResolutionFailed:count 0
scalar v3_mesh.Router3.ipv4.ip packetDropAddressResolutionFailed:sum(packetBytes) 0
scalar v3_mesh.Router3.ipv4.ip packetDropHopLimitReached:count 0
scalar v3_mesh.Router3.ipv4.ip packetDropHopLimitReached:sum(packetBytes) 0
scalar v3_mesh.Router3.ipv4.ip packetDropForwardingDisabled:count 0
scalar v3_mesh.Router3.ipv4.ip packetDropForwardingDisabled:sum(packetBytes) 0
scalar v3_mesh.Router3.ipv4.ip packetDropLifetimeExpired:count 0
scalar v3_mesh.Router3.ipv4.ip packetDropLifetimeExpired:sum(packetBytes) 0
scalar v3_mesh.Router3.ipv4.ip packetDropNoInterfaceFound:count 0
scalar v3_mesh.Router3.ipv4.ip packetDropNoInterfaceFound:sum(packetBytes) 0
scalar v3_mesh.Router3.ipv4.ip packetDropNoRouteFound:count 0
scalar v3_mesh.Router3.ipv4.ip packetDropNoRouteFound:sum(packetBytes) 0
scalar v3_mesh.Router3.ipv4.ip packetDropUndefined:count 0
scalar v3_mesh.Router3.ipv4.ip packetDropUndefined:sum(packetBytes) 0
scalar v3_mesh.Router3.ipv4.arp arpResolutionFailed:count 0
scalar v3_mesh.Router3.ipv4.arp arpResolutionCompleted:count 0
scalar v3_mesh.Router3.ipv4.arp arpResolutionInitiated:count 0
scalar v3_mesh.Router3.ipv4.arp arpReplySent:count 0
scalar v3_mesh.Router3.ipv4.arp arpReplySent:sum(packetBytes) 0
scalar v3_mesh.Router3.ipv4.arp arpRequestSent:count 0
scalar v3_mesh.Router3.ipv4.arp arpRequestSent:sum(packetBytes) 0
scalar v3_mesh.Router3.ipv6.neighbourDiscovery dadFailed:count 0
scalar v3_mesh.Router3.ipv6.neighbourDiscovery dadCompleted:count 0
scalar v3_mesh.Router3.ipv6.neighbourDiscovery startDad:count 0
scalar v3_mesh.Router4.ethernet pauseSent:count 0
scalar v3_mesh.Router4.ethernet pauseSent:sum 0
scalar v3_mesh.Router4.ethernet decapPk:count 402
scalar v3_mesh.Router4.ethernet decapPk:sum(packetBytes) 37380
scalar v3_mesh.Router4.ethernet encapPk:count 426
scalar v3_mesh.Router4.ethernet encapPk:sum(packetBytes) 41312
scalar v3_mesh.Router4.lo[0].lo rcvdPkFromHl:count 0
scalar v3_mesh.Router4.lo[0].lo rcvdPkFromHl:sum(packetBytes) 0
scalar v3_mesh.Router4.lo[0].lo passedUpPk:count 0
scalar v3_mesh.Router4.lo[0].lo passedUpPk:sum(packetBytes) 0
scalar v3_mesh.Router4.lo[0] packetDropInterfaceDown:count 0
scalar v3_mesh.Router4.lo[0] packetDropInterfaceDown:sum(packetBytes) 0
scalar v3_mesh.Router4.lo[0] packetDropNoCarrier:count 0
scalar v3_mesh.Router4.lo[0] packetDropNoCarrier:sum(packetBytes) 0
scalar v3_mesh.Router4.eth[0].queue queueLength:last 0
scalar v3_mesh.Router4.eth[0].queue queueLength:max 17
scalar v3_mesh.Router4.eth[0].queue queueLength:timeavg 1.04474e-05
scalar v3_mesh.Router4.eth[0].queue queueBitLength:last 0
scalar v3_mesh.Router4.eth[0].queue queueBitLength:max 16592
scalar v3_mesh.Router4.eth[0].queue queueBitLength:timeavg 0.010012940159999999
scalar v3_mesh.Router4.eth[0].queue outgoingPackets:count 143
scalar v3_mesh.Router4.eth[0].queue outgoingPacketLengths:sum 134128
scalar v3_mesh.Router4.eth[0].queue incomingPackets:count 143
scalar v3_mesh.Router4.eth[0].queue incomingPacketLengths:sum 134128
scalar v3_mesh.Router4.eth[0].queue droppedPacketsQueueOverflow:count 0
scalar v3_mesh.Router4.eth[0].queue droppedPacketLengthsQueueOverflow:sum 0
scalar v3_mesh.Router4.eth[0].mac "simulated time" 500
scalar v3_mesh.Router4.eth[0].mac full-duplex 1
scalar v3_mesh.Router4.eth[0].mac "frames/sec sent" 0.286
scalar v3_mesh.Router4.eth[0].mac "frames/sec rcvd" 0.246
scalar v3_mesh.Router4.eth[0].mac "bits/sec sent" 268.256
scalar v3_mesh.Router4.eth[0].mac "bits/sec rcvd" 214.112
scalar v3_mesh.Router4.eth[0].mac "rx channel idle (%)" 99.999770144
scalar v3_mesh.Router4.eth[0].mac "rx channel utilization (%)" 0.00022985600000000002
scalar v3_mesh.Router4.eth[0].mac rxPausePkUnits:count 0
scalar v3_mesh.Router4.eth[0].mac rxPausePkUnits:sum 0
scalar v3_mesh.Router4.eth[0].mac txPausePkUnits:count 0
scalar v3_mesh.Router4.eth[0].mac txPausePkUnits:sum 0
scalar v3_mesh.Router4.eth[0].mac rxPkOk:count 123
scalar v3_mesh.Router4.eth[0].mac rxPkOk:sum(packetBytes) 13382
scalar v3_mesh.Router4.eth[0].mac txPk:count 143
scalar v3_mesh.Router4.eth[0].mac txPk:sum(packetBytes) 16766
scalar v3_mesh.Router4.eth[0].mac packetReceivedFromUpper:count 143
scalar v3_mesh.Router4.eth[0].mac packetReceivedFromUpper:sum(packetBytes) 16766
scalar v3_mesh.Router4.eth[0].mac passedUpPk:count 123
scalar v3_mesh.Router4.eth[0].mac passedUpPk:sum(packetBytes) 13382
scalar v3_mesh.Router4.eth[0].mac packetDropIncorrectlyReceived:count 0
scalar v3_mesh.Router4.eth[0].mac packetDropIncorrectlyReceived:sum(packetBytes) 0
scalar v3_mesh.Router4.eth[0].mac packetDropInterfaceDown:count 0
scalar v3_mesh.Router4.eth[0].mac packetDropInterfaceDown:sum(packetBytes) 0
scalar v3_mesh.Router4.eth[0].mac packetDropNotAddressedToUs:count 0
scalar v3_mesh.Router4.eth[0].mac packetDropNotAddressedToUs:sum(packetBytes) 0
scalar v3_mesh.Router4.eth[0] packetDropInterfaceDown:count 0
scalar v3_mesh.Router4.eth[0] packetDropInterfaceDown:sum(packetBytes) 0
scalar v3_mesh.Router4.eth[0] packetDropNoCarrier:count 0
scalar v3_mesh.Router4.eth[0] packetDropNoCarrier:sum(packetBytes) 0
scalar v3_mesh.Router4.eth[1].queue queueLength:last 0
scalar v3_mesh.Router4.eth[1].queue queueLength:max 14
scalar v3_mesh.Router4.eth[1].queue queueLength:timeavg 9.1488e-06
scalar v3_mesh.Router4.eth[1].queue queueBitLength:last 0
scalar v3_mesh.Router4.eth[1].queue queueBitLength:max 13312
scalar v3_mesh.Router4.eth[1].queue queueBitLength:timeavg 0.00885895552
scalar v3_mesh.Router4.eth[1].queue outgoingPackets:count 148
scalar v3_mesh.Router4.eth[1].queue outgoingPacketLengths:sum 136320
scalar v3_mesh.Router4.eth[1].queue incomingPackets:count 148
scalar v3_mesh.Router4.eth[1].queue incomingPacketLengths:sum 136320
scalar v3_mesh.Router4.eth[1].queue droppedPacketsQueueOverflow:count 0
scalar v3_mesh.Router4.eth[1].queue droppedPacketLengthsQueueOverflow:sum 0
scalar v3_mesh.Router4.eth[1].mac "simulated time" 500
scalar v3_mesh.Router4.eth[1].mac full-duplex 1
scalar v3_mesh.Router4.eth[1].mac "frames/sec sent" 0.296
scalar v3_mesh.Router4.eth[1].mac "frames/sec rcvd" 0.266
scalar v3_mesh.Router4.eth[1].mac "bits/sec sent" 272.64
scalar v3_mesh.Router4.eth[1].mac "bits/sec rcvd" 232.864
scalar v3_mesh.Router4.eth[1].mac "rx channel idle (%)" 99.999750112
scalar v3_mesh.Router4.eth[1].mac "rx channel utilization (%)" 0.00024988800000000003
scalar v3_mesh.Router4.eth[1].mac rxPausePkUnits:count 0
scalar v3_mesh.Router4.eth[1].mac rxPausePkUnits:sum 0
scalar v3_mesh.Router4.eth[1].mac txPausePkUnits:count 0
scalar v3_mesh.Router4.eth[1].mac txPausePkUnits:sum 0
scalar v3_mesh.Router4.eth[1].mac rxPkOk:count 133
scalar v3_mesh.Router4.eth[1].mac rxPkOk:sum(packetBytes) 14554
scalar v3_mesh.Router4.eth[1].mac txPk:count 148
scalar v3_mesh.Router4.eth[1].mac txPk:sum(packetBytes) 17040
scalar v3_mesh.Router4.eth[1].mac packetReceivedFromUpper:count 148
scalar v3_mesh.Router4.eth[1].mac packetReceivedFromUpper:sum(packetBytes) 17040
scalar v3_mesh.Router4.eth[1].mac passedUpPk:count 133
scalar v3_mesh.Router4.eth[1].mac passedUpPk:sum(packetBytes) 14554
scalar v3_mesh.Router4.eth[1].mac packetDropIncorrectlyReceived:count 0
scalar v3_mesh.Router4.eth[1].mac packetDropIncorrectlyReceived:sum(packetBytes) 0
scalar v3_mesh.Router4.eth[1].mac packetDropInterfaceDown:count 0
scalar v3_mesh.Router4.eth[1].mac packetDropInterfaceDown:sum(packetBytes) 0
scalar v3_mesh.Router4.eth[1].mac packetDropNotAddressedToUs:count 0
scalar v3_mesh.Router4.eth[1].mac packetDropNotAddressedToUs:sum(packetBytes) 0
scalar v3_mesh.Router4.eth[1] packetDropInterfaceDown:count 0
scalar v3_mesh.Router4.eth[1] packetDropInterfaceDown:sum(packetBytes) 0
scalar v3_mesh.Router4.eth[1] packetDropNoCarrier:count 0
scalar v3_mesh.Router4.eth[1] packetDropNoCarrier:sum(packetBytes) 0
scalar v3_mesh.Router4.eth[2].queue queueLength:last 0
scalar v3_mesh.Router4.eth[2].queue queueLength:max 12
scalar v3_mesh.Router4.eth[2].queue queueLength:timeavg 7.1626799999999995e-06
scalar v3_mesh.Router4.eth[2].queue queueBitLength:last 0
scalar v3_mesh.Router4.eth[2].queue queueBitLength:max 12032
scalar v3_mesh.Router4.eth[2].queue queueBitLength:timeavg 0.00675764928
scalar v3_mesh.Router4.eth[2].queue outgoingPackets:count 135
scalar v3_mesh.Router4.eth[2].queue outgoingPacketLengths:sum 121392
scalar v3_mesh.Router4.eth[2].queue incomingPackets:count 135
scalar v3_mesh.Router4.eth[2].queue incomingPacketLengths:sum 121392
scalar v3_mesh.Router4.eth[2].queue droppedPacketsQueueOverflow:count 0
scalar v3_mesh.Router4.eth[2].queue droppedPacketLengthsQueueOverflow:sum 0
scalar v3_mesh.Router4.eth[2].mac "simulated time" 500
scalar v3_mesh.Router4.eth[2].mac full-duplex 1
scalar v3_mesh.Router4.eth[2].mac "frames/sec sent" 0.27
scalar v3_mesh.Router4.eth[2].mac "frames/sec rcvd" 0.292
scalar v3_mesh.Router4.eth[2].mac "bits/sec sent" 242.784
scalar v3_mesh.Router4.eth[2].mac "bits/sec rcvd" 266.88
scalar v3_mesh.Router4.eth[2].mac "rx channel idle (%)" 99.99971443199999
scalar v3_mesh.Router4.eth[2].mac "rx channel utilization (%)" 0.000285568
scalar v3_mesh.Router4.eth[2].mac rxPausePkUnits:count 0
scalar v3_mesh.Router4.eth[2].mac rxPausePkUnits:sum 0
scalar v3_mesh.Router4.eth[2].mac txPausePkUnits:count 0
scalar v3_mesh.Router4.eth[2].mac txPausePkUnits:sum 0
scalar v3_mesh.Router4.eth[2].mac rxPkOk:count 146
scalar v3_mesh.Router4.eth[2].mac rxPkOk:sum(packetBytes) 16680
scalar v3_mesh.Router4.eth[2].mac txPk:count 135
scalar v3_mesh.Router4.eth[2].mac txPk:sum(packetBytes) 15174
scalar v3_mesh.Router4.eth[2].mac packetReceivedFromUpper:count 135
scalar v3_mesh.Router4.eth[2].mac packetReceivedFromUpper:sum(packetBytes) 15174
scalar v3_mesh.Router4.eth[2].mac passedUpPk:count 146
scalar v3_mesh.Router4.eth[2].mac passedUpPk:sum(packetBytes) 16680
scalar v3_mesh.Router4.eth[2].mac packetDropIncorrectlyReceived:count 0
scalar v3_mesh.Router4.eth[2].mac packetDropIncorrectlyReceived:sum(packetBytes) 0
scalar v3_mesh.Router4.eth[2].mac packetDropInterfaceDown:count 0
scalar v3_mesh.Router4.eth[2].mac packetDropInterfaceDown:sum(packetBytes) 0
scalar v3_mesh.Router4.eth[2].mac packetDropNotAddressedToUs:count 0
scalar v3_mesh.Router4.eth[2].mac packetDropNotAddressedToUs:sum(packetBytes) 0
scalar v3_mesh.Router4.eth[2] packetDropInterfaceDown:count 0
scalar v3_mesh.Router4.eth[2] packetDropInterfaceDown:sum(packetBytes) 0
scalar v3_mesh.Router4.eth[2] packetDropNoCarrier:count 0
scalar v3_mesh.Router4.eth[2] packetDropNoCarrier:sum(packetBytes) 0
scalar v3_mesh.Router4.ipv4.ip packetDropAddressResolutionFailed:count 0
scalar v3_mesh.Router4.ipv4.ip packetDropAddressResolutionFailed:sum(packetBytes) 0
scalar v3_mesh.Router4.ipv4.ip packetDropHopLimitReached:count 0
scalar v3_mesh.Router4.ipv4.ip packetDropHopLimitReached:sum(packetBytes) 0
scalar v3_mesh.Router4.ipv4.ip packetDropForwardingDisabled:count 0
scalar v3_mesh.Router4.ipv4.ip packetDropForwardingDisabled:sum(packetBytes) 0
scalar v3_mesh.Router4.ipv4.ip packetDropLifetimeExpired:count 0
scalar v3_mesh.Router4.ipv4.ip packetDropLifetimeExpired:sum(packetBytes) 0
scalar v3_mesh.Router4.ipv4.ip packetDropNoInterfaceFound:count 0
scalar v3_mesh.Router4.ipv4.ip packetDropNoInterfaceFound:sum(packetBytes) 0
scalar v3_mesh.Router4.ipv4.ip packetDropNoRouteFound:count 0
scalar v3_mesh.Router4.ipv4.ip packetDropNoRouteFound:sum(packetBytes) 0
scalar v3_mesh.Router4.ipv4.ip packetDropUndefined:count 0
scalar v3_mesh.Router4.ipv4.ip packetDropUndefined:sum(packetBytes) 0
scalar v3_mesh.Router4.ipv4.arp arpResolutionFailed:count 0
scalar v3_mesh.Router4.ipv4.arp arpResolutionCompleted:count 0
scalar v3_mesh.Router4.ipv4.arp arpResolutionInitiated:count 0
scalar v3_mesh.Router4.ipv4.arp arpReplySent:count 0
scalar v3_mesh.Router4.ipv4.arp arpReplySent:sum(packetBytes) 0
scalar v3_mesh.Router4.ipv4.arp arpRequestSent:count 0
scalar v3_mesh.Router4.ipv4.arp arpRequestSent:sum(packetBytes) 0
scalar v3_mesh.Router4.ipv6.neighbourDiscovery dadFailed:count 0
scalar v3_mesh.Router4.ipv6.neighbourDiscovery dadCompleted:count 0
scalar v3_mesh.Router4.ipv6.neighbourDiscovery startDad:count 0
scalar v3_mesh.Router5.ethernet pauseSent:count 0
scalar v3_mesh.Router5.ethernet pauseSent:sum 0
scalar v3_mesh.Router5.ethernet decapPk:count 292
scalar v3_mesh.Router5.ethernet decapPk:sum(packetBytes) 28372
scalar v3_mesh.Router5.ethernet encapPk:count 260
scalar v3_mesh.Router5.ethernet encapPk:sum(packetBytes) 23940
scalar v3_mesh.Router5.lo[0].lo rcvdPkFromHl:count 0
scalar v3_mesh.Router5.lo[0].lo rcvdPkFromHl:sum(packetBytes) 0
scalar v3_mesh.Router5.lo[0].lo passedUpPk:count 0
scalar v3_mesh.Router5.lo[0].lo passedUpPk:sum(packetBytes) 0
scalar v3_mesh.Router5.lo[0] packetDropInterfaceDown:count 0
scalar v3_mesh.Router5.lo[0] packetDropInterfaceDown:sum(packetBytes) 0
scalar v3_mesh.Router5.lo[0] packetDropNoCarrier:count 0
scalar v3_mesh.Router5.lo[0] packetDropNoCarrier:sum(packetBytes) 0
scalar v3_mesh.Router5.eth[0].queue queueLength:last 0
scalar v3_mesh.Router5.eth[0].queue queueLength:max 9
scalar v3_mesh.Router5.eth[0].queue queueLength:timeavg 4.30136e-06
scalar v3_mesh.Router5.eth[0].queue queueBitLength:last 0
scalar v3_mesh.Router5.eth[0].queue queueBitLength:max 8624
scalar v3_mesh.Router5.eth[0].queue queueBitLength:timeavg 0.00388591104
scalar v3_mesh.Router5.eth[0].queue outgoingPackets:count 133
scalar v3_mesh.Router5.eth[0].queue outgoingPacketLengths:sum 116432
scalar v3_mesh.Router5.eth[0].queue incomingPackets:count 133
scalar v3_mesh.Router5.eth[0].queue incomingPacketLengths:sum 116432
scalar v3_mesh.Router5.eth[0].queue droppedPacketsQueueOverflow:count 0
scalar v3_mesh.Router5.eth[0].queue droppedPacketLengthsQueueOverflow:sum 0
scalar v3_mesh.Router5.eth[0].mac "simulated time" 500
scalar v3_mesh.Router5.eth[0].mac full-duplex 1
scalar v3_mesh.Router5.eth[0].mac "frames/sec sent" 0.266
scalar v3_mesh.Router5.eth[0].mac "frames/sec rcvd" 0.296
scalar v3_mesh.Router5.eth[0].mac "bits/sec sent" 232.864
scalar v3_mesh.Router5.eth[0].mac "bits/sec rcvd" 272.64
scalar v3_mesh.Router5.eth[0].mac "rx channel idle (%)" 99.999708416
scalar v3_mesh.Router5.eth[0].mac "rx channel utilization (%)" 0.000291584
scalar v3_mesh.Router5.eth[0].mac rxPausePkUnits:count 0
scalar v3_mesh.Router5.eth[0].mac rxPausePkUnits:sum 0
scalar v3_mesh.Router5.eth[0].mac txPausePkUnits:count 0
scalar v3_mesh.Router5.eth[0].mac txPausePkUnits:sum 0
scalar v3_mesh.Router5.eth[0].mac rxPkOk:count 148
scalar v3_mesh.Router5.eth[0].mac rxPkOk:sum(packetBytes) 17040
scalar v3_mesh.Router5.eth[0].mac txPk:count 133
scalar v3_mesh.Router5.eth[0].mac txPk:sum(packetBytes) 14554
scalar v3_mesh.Router5.eth[0].mac packetReceivedFromUpper:count 133
scalar v3_mesh.Router5.eth[0].mac packetReceivedFromUpper:sum(packetBytes) 14554
scalar v3_mesh.Router5.eth[0].mac passedUpPk:count 148
scalar v3_mesh.Router5.eth[0].mac passedUpPk:sum(packetBytes) 17040
scalar v3_mesh.Router5.eth[0].mac packetDropIncorrectlyReceived:count 0
scalar v3_mesh.Router5.eth[0].mac packetDropIncorrectlyReceived:sum(packetBytes) 0
scalar v3_mesh.Router5.eth[0].mac packetDropInterfaceDown:count 0
scalar v3_mesh.Router5.eth[0].mac packetDropInterfaceDown:sum(packetBytes) 0
scalar v3_mesh.Router5.eth[0].mac packetDropNotAddressedToUs:count 0
scalar v3_mesh.Router5.eth[0].mac packetDropNotAddressedToUs:sum(packetBytes) 0
scalar v3_mesh.Router5.eth[0] packetDropInterfaceDown:count 0
scalar v3_mesh.Router5.eth[0] packetDropInterfaceDown:sum(packetBytes) 0
scalar v3_mesh.Router5.eth[0] packetDropNoCarrier:count 0
scalar v3_mesh.Router5.eth[0] packetDropNoCarrier:sum(packetBytes) 0
scalar v3_mesh.Router5.eth[1].queue queueLength:last 0
scalar v3_mesh.Router5.eth[1].queue queueLength:max 9
scalar v3_mesh.Router5.eth[1].queue queueLength:timeavg 3.4551599999999997e-06
scalar v3_mesh.Router5.eth[1].queue queueBitLength:last 0
scalar v3_mesh.Router5.eth[1].queue queueBitLength:max 8624
scalar v3_mesh.Router5.eth[1].queue queueBitLength:timeavg 0.00324775232
scalar v3_mesh.Router5.eth[1].queue outgoingPackets:count 127
scalar v3_mesh.Router5.eth[1].queue outgoingPacketLengths:sum 112528
scalar v3_mesh.Router5.eth[1].queue incomingPackets:count 127
scalar v3_mesh.Router5.eth[1].queue incomingPacketLengths:sum 112528
scalar v3_mesh.Router5.eth[1].queue droppedPacketsQueueOverflow:count 0
scalar v3_mesh.Router5.eth[1].queue droppedPacketLengthsQueueOverflow:sum 0
scalar v3_mesh.Router5.eth[1].mac "simulated time" 500
scalar v3_mesh.Router5.eth[1].mac full-duplex 1
scalar v3_mesh.Router5.eth[1].mac "frames/sec sent" 0.254
scalar v3_mesh.Router5.eth[1].mac "frames/sec rcvd" 0.288
scalar v3_mesh.Router5.eth[1].mac "bits/sec sent" 225.056
scalar v3_mesh.Router5.eth[1].mac "bits/sec rcvd" 265.408
scalar v3_mesh.Router5.eth[1].mac "rx channel idle (%)" 99.99971615999999
scalar v3_mesh.Router5.eth[1].mac "rx channel utilization (%)" 0.00028384
scalar v3_mesh.Router5.eth[1].mac rxPausePkUnits:count 0
scalar v3_mesh.Router5.eth[1].mac rxPausePkUnits:sum 0
scalar v3_mesh.Router5.eth[1].mac txPausePkUnits:count 0
scalar v3_mesh.Router5.eth[1].mac txPausePkUnits:sum 0
scalar v3_mesh.Router5.eth[1].mac rxPkOk:count 144
scalar v3_mesh.Router5.eth[1].mac rxPkOk:sum(packetBytes) 16588
scalar v3_mesh.Router5.eth[1].mac txPk:count 127
scalar v3_mesh.Router5.eth[1].mac txPk:sum(packetBytes) 14066
scalar v3_mesh.Router5.eth[1].mac packetReceivedFromUpper:count 127
scalar v3_mesh.Router5.eth[1].mac packetReceivedFromUpper:sum(packetBytes) 14066
scalar v3_mesh.Router5.eth[1].mac passedUpPk:count 144
scalar v3_mesh.Router5.eth[1].mac passedUpPk:sum(packetBytes) 16588
scalar v3_mesh.Router5.eth[1].mac packetDropIncorrectlyReceived:count 0
scalar v3_mesh.Router5.eth[1].mac packetDropIncorrectlyReceived:sum(packetBytes) 0
scalar v3_mesh.Router5.eth[1].mac packetDropInterfaceDown:count 0
scalar v3_mesh.Router5.eth[1].mac packetDropInterfaceDown:sum(packetBytes) 0
scalar v3_mesh.Router5.eth[1].mac packetDropNotAddressedToUs:count 0
scalar v3_mesh.Router5.eth[1].mac packetDropNotAddressedToUs:sum(packetBytes) 0
scalar v3_mesh.Router5.eth[1] packetDropInterfaceDown:count 0
scalar v3_mesh.Router5.eth[1] packetDropInterfaceDown:sum(packetBytes) 0
scalar v3_mesh.Router5.eth[1] packetDropNoCarrier:count 0
scalar v3_mesh.Router5.eth[1] packetDropNoCarrier:sum(packetBytes) 0
scalar v3_mesh.Router5.ipv4.ip packetDropAddressResolutionFailed:count 0
scalar v3_mesh.Router5.ipv4.ip packetDropAddressResolutionFailed:sum(packetBytes) 0
scalar v3_mesh.Router5.ipv4.ip packetDropHopLimitReached:count 0
scalar v3_mesh.Router5.ipv4.ip packetDropHopLimitReached:sum(packetBytes) 0
scalar v3_mesh.Router5.ipv4.ip packetDropForwardingDisabled:count 0
scalar v3_mesh.Router5.ipv4.ip packetDropForwardingDisabled:sum(packetBytes) 0
scalar v3_mesh.Router5.ipv4.ip packetDropLifetimeExpired:count 0
scalar v3_mesh.Router5.ipv4.ip packetDropLifetimeExpired:sum(packetBytes) 0
scalar v3_mesh.Router5.ipv4.ip packetDropNoInterfaceFound:count 0
scalar v3_mesh.Router5.ipv4.ip packetDropNoInterfaceFound:sum(packetBytes) 0
scalar v3_mesh.Router5.ipv4.ip packetDropNoRouteFound:count 0
scalar v3_mesh.Router5.ipv4.ip packetDropNoRouteFound:sum(packetBytes) 0
scalar v3_mesh.Router5.ipv4.ip packetDropUndefined:count 0
scalar v3_mesh.Router5.ipv4.ip packetDropUndefined:sum(packetBytes) 0
scalar v3_mesh.Router5.ipv4.arp arpResolutionFailed:count 0
scalar v3_mesh.Router5.ipv4.arp arpResolutionCompleted:count 0
scalar v3_mesh.Router5.ipv4.arp arpResolutionInitiated:count 0
scalar v3_mesh.Router5.ipv4.arp arpReplySent:count 0
scalar v3_mesh.Router5.ipv4.arp arpReplySent:sum(packetBytes) 0
scalar v3_mesh.Router5.ipv4.arp arpRequestSent:count 0
scalar v3_mesh.Router5.ipv4.arp arpRequestSent:sum(packetBytes) 0
scalar v3_mesh.Router5.ipv6.neighbourDiscovery dadFailed:count 0
scalar v3_mesh.Router5.ipv6.neighbourDiscovery dadCompleted:count 0
scalar v3_mesh.Router5.ipv6.neighbourDiscovery startDad:count 0
scalar v3_mesh.Router6.ethernet pauseSent:count 0
scalar v3_mesh.Router6.ethernet pauseSent:sum 0
scalar v3_mesh.Router6.ethernet decapPk:count 383
scalar v3_mesh.Router6.ethernet decapPk:sum(packetBytes) 35920
scalar v3_mesh.Router6.ethernet encapPk:count 428
scalar v3_mesh.Router6.ethernet encapPk:sum(packetBytes) 41568
scalar v3_mesh.Router6.lo[0].lo rcvdPkFromHl:count 0
scalar v3_mesh.Router6.lo[0].lo rcvdPkFromHl:sum(packetBytes) 0
scalar v3_mesh.Router6.lo[0].lo passedUpPk:count 0
scalar v3_mesh.Router6.lo[0].lo passedUpPk:sum(packetBytes) 0
scalar v3_mesh.Router6.lo[0] packetDropInterfaceDown:count 0
scalar v3_mesh.Router6.lo[0] packetDropInterfaceDown:sum(packetBytes) 0
scalar v3_mesh.Router6.lo[0] packetDropNoCarrier:count 0
scalar v3_mesh.Router6.lo[0] packetDropNoCarrier:sum(packetBytes) 0
scalar v3_mesh.Router6.eth[0].queue queueLength:last 0
scalar v3_mesh.Router6.eth[0].queue queueLength:max 21
scalar v3_mesh.Router6.eth[0].queue queueLength:timeavg 1.504372e-05
scalar v3_mesh.Router6.eth[0].queue queueBitLength:last 0
scalar v3_mesh.Router6.eth[0].queue queueBitLength:max 19248
scalar v3_mesh.Router6.eth[0].queue queueBitLength:timeavg 0.014047644799999998
scalar v3_mesh.Router6.eth[0].queue outgoingPackets:count 146
scalar v3_mesh.Router6.eth[0].queue outgoingPacketLengths:sum 133440
scalar v3_mesh.Router6.eth[0].queue incomingPackets:count 146
scalar v3_mesh.Router6.eth[0].queue incomingPacketLengths:sum 133440
scalar v3_mesh.Router6.eth[0].queue droppedPacketsQueueOverflow:count 0
scalar v3_mesh.Router6.eth[0].queue droppedPacketLengthsQueueOverflow:sum 0
scalar v3_mesh.Router6.eth[0].mac "simulated time" 500
scalar v3_mesh.Router6.eth[0].mac full-duplex 1
scalar v3_mesh.Router6.eth[0].mac "frames/sec sent" 0.292
scalar v3_mesh.Router6.eth[0].mac "frames/sec rcvd" 0.27
scalar v3_mesh.Router6.eth[0].mac "bits/sec sent" 266.88
scalar v3_mesh.Router6.eth[0].mac "bits/sec rcvd" 242.784
scalar v3_mesh.Router6.eth[0].mac "rx channel idle (%)" 99.999739936
scalar v3_mesh.Router6.eth[0].mac "rx channel utilization (%)" 0.000260064
scalar v3_mesh.Router6.eth[0].mac rxPausePkUnits:count 0
scalar v3_mesh.Router6.eth[0].mac rxPausePkUnits:sum 0
scalar v3_mesh.Router6.eth[0].mac txPausePkUnits:count 0
scalar v3_mesh.Router6.eth[0].mac txPausePkUnits:sum 0
scalar v3_mesh.Router6.eth[0].mac rxPkOk:count 135
scalar v3_mesh.Router6.eth[0].mac rxPkOk:sum(packetBytes) 15174
scalar v3_mesh.Router6.eth[0].mac txPk:count 146
scalar v3_mesh.Router6.eth[0].mac txPk:sum(packetBytes) 16680
scalar v3_mesh.Router6.eth[0].mac packetReceivedFromUpper:count 146
scalar v3_mesh.Router6.eth[0].mac packetReceivedFromUpper:sum(packetBytes) 16680
scalar v3_mesh.Router6.eth[0].mac passedUpPk:count 135
scalar v3_mesh.Router6.eth[0].mac passedUpPk:sum(packetBytes) 15174
scalar v3_mesh.Router6.eth[0].mac packetDropIncorrectlyReceived:count 0
scalar v3_mesh.Router6.eth[0].mac packetDropIncorrectlyReceived:sum(packetBytes) 0
scalar v3_mesh.Router6.eth[0].mac packetDropInterfaceDown:count 0
scalar v3_mesh.Router6.eth[0].mac packetDropInterfaceDown:sum(packetBytes) 0
scalar v3_mesh.Router6.eth[0].mac packetDropNotAddressedToUs:count 0
scalar v3_mesh.Router6.eth[0].mac packetDropNotAddressedToUs:sum(packetBytes) 0
scalar v3_mesh.Router6.eth[0] packetDropInterfaceDown:count 0
scalar v3_mesh.Router6.eth[0] packetDropInterfaceDown:sum(packetBytes) 0
scalar v3_mesh.Router6.eth[0] packetDropNoCarrier:count 0
scalar v3_mesh.Router6.eth[0] packetDropNoCarrier:sum(packetBytes) 0
scalar v3_mesh.Router6.eth[1].queue queueLength:last 0
scalar v3_mesh.Router6.eth[1].queue queueLength:max 19
scalar v3_mesh.Router6.eth[1].queue queueLength:timeavg 1.337752e-05
scalar v3_mesh.Router6.eth[1].queue queueBitLength:last 0
scalar v3_mesh.Router6.eth[1].queue queueBitLength:max 18576
scalar v3_mesh.Router6.eth[1].queue queueBitLength:timeavg 0.0127190912
scalar v3_mesh.Router6.eth[1].queue outgoingPackets:count 144
scalar v3_mesh.Router6.eth[1].queue outgoingPacketLengths:sum 132704
scalar v3_mesh.Router6.eth[1].queue incomingPackets:count 144
scalar v3_mesh.Router6.eth[1].queue incomingPacketLengths:sum 132704
scalar v3_mesh.Router6.eth[1].queue droppedPacketsQueueOverflow:count 0
scalar v3_mesh.Router6.eth[1].queue droppedPacketLengthsQueueOverflow:sum 0
scalar v3_mesh.Router6.eth[1].mac "simulated time" 500
scalar v3_mesh.Router6.eth[1].mac full-duplex 1
scalar v3_mesh.Router6.eth[1].mac "frames/sec sent" 0.288
scalar v3_mesh.Router6.eth[1].mac "frames/sec rcvd" 0.254
scalar v3_mesh.Router6.eth[1].mac "bits/sec sent" 265.408
scalar v3_mesh.Router6.eth[1].mac "bits/sec rcvd" 225.056
scalar v3_mesh.Router6.eth[1].mac "rx channel idle (%)" 99.999758688
scalar v3_mesh.Router6.eth[1].mac "rx channel utilization (%)" 0.00024131199999999998
scalar v3_mesh.Router6.eth[1].mac rxPausePkUnits:count 0
scalar v3_mesh.Router6.eth[1].mac rxPausePkUnits:sum 0
scalar v3_mesh.Router6.eth[1].mac txPausePkUnits:count 0
scalar v3_mesh.Router6.eth[1].mac txPausePkUnits:sum 0
scalar v3_mesh.Router6.eth[1].mac rxPkOk:count 127
scalar v3_mesh.Router6.eth[1].mac rxPkOk:sum(packetBytes) 14066
scalar v3_mesh.Router6.eth[1].mac txPk:count 144
scalar v3_mesh.Router6.eth[1].mac txPk:sum(packetBytes) 16588
scalar v3_mesh.Router6.eth[1].mac packetReceivedFromUpper:count 144
scalar v3_mesh.Router6.eth[1].mac packetReceivedFromUpper:sum(packetBytes) 16588
scalar v3_mesh.Router6.eth[1].mac passedUpPk:count 127
scalar v3_mesh.Router6.eth[1].mac passedUpPk:sum(packetBytes) 14066
scalar v3_mesh.Router6.eth[1].mac packetDropIncorrectlyReceived:count 0
scalar v3_mesh.Router6.eth[1].mac packetDropIncorrectlyReceived:sum(packetBytes) 0
scalar v3_mesh.Router6.eth[1].mac packetDropInterfaceDown:count 0
scalar v3_mesh.Router6.eth[1].mac packetDropInterfaceDown:sum(packetBytes) 0
scalar v3_mesh.Router6.eth[1].mac packetDropNotAddressedToUs:count 0
scalar v3_mesh.Router6.eth[1].mac packetDropNotAddressedToUs:sum(packetBytes) 0
scalar v3_mesh.Router6.eth[1] packetDropInterfaceDown:count 0
scalar v3_mesh.Router6.eth[1] packetDropInterfaceDown:sum(packetBytes) 0
scalar v3_mesh.Router6.eth[1] packetDropNoCarrier:count 0
scalar v3_mesh.Router6.eth[1] packetDropNoCarrier:sum(packetBytes) 0
scalar v3_mesh.Router6.eth[2].queue queueLength:last 0
scalar v3_mesh.Router6.eth[2].queue queueLength:max 23
scalar v3_mesh.Router6.eth[2].queue queueLength:timeavg 1.3218839999999999e-05
scalar v3_mesh.Router6.eth[2].queue queueBitLength:last 0
scalar v3_mesh.Router6.eth[2].queue queueBitLength:max 21968
scalar v3_mesh.Router6.eth[2].queue queueBitLength:timeavg 0.012391021439999999
scalar v3_mesh.Router6.eth[2].queue outgoingPackets:count 138
scalar v3_mesh.Router6.eth[2].queue outgoingPacketLengths:sum 128032
scalar v3_mesh.Router6.eth[2].queue incomingPackets:count 138
scalar v3_mesh.Router6.eth[2].queue incomingPacketLengths:sum 128032
scalar v3_mesh.Router6.eth[2].queue droppedPacketsQueueOverflow:count 0
scalar v3_mesh.Router6.eth[2].queue droppedPacketLengthsQueueOverflow:sum 0
scalar v3_mesh.Router6.eth[2].mac "simulated time" 500
scalar v3_mesh.Router6.eth[2].mac full-duplex 1
scalar v3_mesh.Router6.eth[2].mac "frames/sec sent" 0.276
scalar v3_mesh.Router6.eth[2].mac "frames/sec rcvd" 0.242
scalar v3_mesh.Router6.eth[2].mac "bits/sec sent" 256.064
scalar v3_mesh.Router6.eth[2].mac "bits/sec rcvd" 217.184
scalar v3_mesh.Router6.eth[2].mac "rx channel idle (%)" 99.999767328
scalar v3_mesh.Router6.eth[2].mac "rx channel utilization (%)" 0.00023267199999999998
scalar v3_mesh.Router6.eth[2].mac rxPausePkUnits:count 0
scalar v3_mesh.Router6.eth[2].mac rxPausePkUnits:sum 0
scalar v3_mesh.Router6.eth[2].mac txPausePkUnits:count 0
scalar v3_mesh.Router6.eth[2].mac txPausePkUnits:sum 0
scalar v3_mesh.Router6.eth[2].mac rxPkOk:count 121
scalar v3_mesh.Router6.eth[2].mac rxPkOk:sum(packetBytes) 13574
scalar v3_mesh.Router6.eth[2].mac txPk:count 138
scalar v3_mesh.Router6.eth[2].mac txPk:sum(packetBytes) 16004
scalar v3_mesh.Router6.eth[2].mac packetReceivedFromUpper:count 138
scalar v3_mesh.Router6.eth[2].mac packetReceivedFromUpper:sum(packetBytes) 16004
scalar v3_mesh.Router6.eth[2].mac passedUpPk:count 121
scalar v3_mesh.Router6.eth[2].mac passedUpPk:sum(packetBytes) 13574
scalar v3_mesh.Router6.eth[2].mac packetDropIncorrectlyReceived:count 0
scalar v3_mesh.Router6.eth[2].mac packetDropIncorrectlyReceived:sum(packetBytes) 0
scalar v3_mesh.Router6.eth[2].mac packetDropInterfaceDown:count 0
scalar v3_mesh.Router6.eth[2].mac packetDropInterfaceDown:sum(packetBytes) 0
scalar v3_mesh.Router6.eth[2].mac packetDropNotAddressedToUs:count 0
scalar v3_mesh.Router6.eth[2].mac packetDropNotAddressedToUs:sum(packetBytes) 0
scalar v3_mesh.Router6.eth[2] packetDropInterfaceDown:count 0
scalar v3_mesh.Router6.eth[2] packetDropInterfaceDown:sum(packetBytes) 0
scalar v3_mesh.Router6.eth[2] packetDropNoCarrier:count 0
scalar v3_mesh.Router6.eth[2] packetDropNoCarrier:sum(packetBytes) 0
scalar v3_mesh.Router6.ipv4.ip packetDropAddressResolutionFailed:count 0
scalar v3_mesh.Router6.ipv4.ip packetDropAddressResolutionFailed:sum(packetBytes) 0
scalar v3_mesh.Router6.ipv4.ip packetDropHopLimitReached:count 0
scalar v3_mesh.Router6.ipv4.ip packetDropHopLimitReached:sum(packetBytes) 0
scalar v3_mesh.Router6.ipv4.ip packetDropForwardingDisabled:count 0
scalar v3_mesh.Router6.ipv4.ip packetDropForwardingDisabled:sum(packetBytes) 0
scalar v3_mesh.Router6.ipv4.ip packetDropLifetimeExpired:count 0
scalar v3_mesh.Router6.ipv4.ip packetDropLifetimeExpired:sum(packetBytes) 0
scalar v3_mesh.Router6.ipv4.ip packetDropNoInterfaceFound:count 0
scalar v3_mesh.Router6.ipv4.ip packetDropNoInterfaceFound:sum(packetBytes) 0
scalar v3_mesh.Router6.ipv4.ip packetDropNoRouteFound:count 0
scalar v3_mesh.Router6.ipv4.ip packetDropNoRouteFound:sum(packetBytes) 0
scalar v3_mesh.Router6.ipv4.ip packetDropUndefined:count 0
scalar v3_mesh.Router6.ipv4.ip packetDropUndefined:sum(packetBytes) 0
scalar v3_mesh.Router6.ipv4.arp arpResolutionFailed:count 0
scalar v3_mesh.Router6.ipv4.arp arpResolutionCompleted:count 0
scalar v3_mesh.Router6.ipv4.arp arpResolutionInitiated:count 0
scalar v3_mesh.Router6.ipv4.arp arpReplySent:count 0
scalar v3_mesh.Router6.ipv4.arp arpReplySent:sum(packetBytes) 0
scalar v3_mesh.Router6.ipv4.arp arpRequestSent:count 0
scalar v3_mesh.Router6.ipv4.arp arpRequestSent:sum(packetBytes) 0
scalar v3_mesh.Router6.ipv6.neighbourDiscovery dadFailed:count 0
scalar v3_mesh.Router6.ipv6.neighbourDiscovery dadCompleted:count 0
scalar v3_mesh.Router6.ipv6.neighbourDiscovery startDad:count 0
scalar v3_mesh.Router1.eth[0].queue queueingTime:histogram:count 190
scalar v3_mesh.Router1.eth[0].queue queueingTime:histogram:sumweights 190
scalar v3_mesh.Router1.eth[0].queue queueingTime:histogram:mean 5.88778947368421e-06
scalar v3_mesh.Router1.eth[0].queue queueingTime:histogram:stddev 1.2244966587456698e-05
scalar v3_mesh.Router1.eth[0].queue queueingTime:histogram:min 0
scalar v3_mesh.Router1.eth[0].queue queueingTime:histogram:max 5.824e-05
scalar v3_mesh.Router1.eth[0].queue queueingTime:histogram:numbins 73
scalar v3_mesh.Router1.eth[0].queue queueingTime:histogram:rangemin 0
scalar v3_mesh.Router1.eth[0].queue queueingTime:histogram:rangemax 7.300000000000001e-05
scalar v3_mesh.Router1.eth[0].queue queueingTime:histogram:underflows 0
scalar v3_mesh.Router1.eth[0].queue queueingTime:histogram:overflows 0
scalar v3_mesh.Router1.eth[0].queue outgoingPacketLengths:histogram:count 190
scalar v3_mesh.Router1.eth[0].queue outgoingPacketLengths:histogram:sumweights 190
scalar v3_mesh.Router1.eth[0].queue outgoingPacketLengths:histogram:mean 873.6
scalar v3_mesh.Router1.eth[0].queue outgoingPacketLengths:histogram:stddev 191.9209713899428
scalar v3_mesh.Router1.eth[0].queue outgoingPacketLengths:histogram:min 688
scalar v3_mesh.Router1.eth[0].queue outgoingPacketLengths:histogram:max 2320
scalar v3_mesh.Router1.eth[0].queue outgoingPacketLengths:histogram:numbins 48
scalar v3_mesh.Router1.eth[0].queue outgoingPacketLengths:histogram:rangemin 420
scalar v3_mesh.Router1.eth[0].queue outgoingPacketLengths:histogram:rangemax 2340
scalar v3_mesh.Router1.eth[0].queue outgoingPacketLengths:histogram:underflows 0
scalar v3_mesh.Router1.eth[0].queue outgoingPacketLengths:histogram:overflows 0
scalar v3_mesh.Router1.eth[0].queue flowQueueingTime:histogram:count 0
scalar v3_mesh.Router1.eth[0].queue flowQueueingTime:histogram:sumweights 0
scalar v3_mesh.Router1.eth[0].queue flowQueueingTime:histogram:mean nan
scalar v3_mesh.Router1.eth[0].queue flowQueueingTime:histogram:stddev nan
scalar v3_mesh.Router1.eth[0].queue flowQueueingTime:histogram:min nan
scalar v3_mesh.Router1.eth[0].queue flowQueueingTime:histogram:max nan
scalar v3_mesh.Router1.eth[0].queue flowQueueingTime:histogram:numbins 1
scalar v3_mesh.Router1.eth[0].queue flowQueueingTime:histogram:rangemin 0
scalar v3_mesh.Router1.eth[0].queue flowQueueingTime:histogram:rangemax 1
scalar v3_mesh.Router1.eth[0].queue flowQueueingTime:histogram:underflows 0
scalar v3_mesh.Router1.eth[0].queue flowQueueingTime:histogram:overflows 0
scalar v3_mesh.Router1.eth[0].queue incomingPacketLengths:histogram:count 190
scalar v3_mesh.Router1.eth[0].queue incomingPacketLengths:histogram:sumweights 190
scalar v3_mesh.Router1.eth[0].queue incomingPacketLengths:histogram:mean 873.6
scalar v3_mesh.Router1.eth[0].queue incomingPacketLengths:histogram:stddev 191.9209713899428
scalar v3_mesh.Router1.eth[0].queue incomingPacketLengths:histogram:min 688
scalar v3_mesh.Router1.eth[0].queue incomingPacketLengths:histogram:max 2320
scalar v3_mesh.Router1.eth[0].queue incomingPacketLengths:histogram:numbins 48
scalar v3_mesh.Router1.eth[0].queue incomingPacketLengths:histogram:rangemin 420
scalar v3_mesh.Router1.eth[0].queue incomingPacketLengths:histogram:rangemax 2340
scalar v3_mesh.Router1.eth[0].queue incomingPacketLengths:histogram:underflows 0
scalar v3_mesh.Router1.eth[0].queue incomingPacketLengths:histogram:overflows 0
scalar v3_mesh.Router1.eth[0].mac throughput:histogram:count 5000
scalar v3_mesh.Router1.eth[0].mac throughput:histogram:sumweights 5000
scalar v3_mesh.Router1.eth[0].mac throughput:histogram:mean 356.28800000000007
scalar v3_mesh.Router1.eth[0].mac throughput:histogram:stddev 8832.133315164314
scalar v3_mesh.Router1.eth[0].mac throughput:histogram:min 0
scalar v3_mesh.Router1.eth[0].mac throughput:histogram:max 381120.00000000006
scalar v3_mesh.Router1.eth[0].mac throughput:histogram:numbins 62
scalar v3_mesh.Router1.eth[0].mac throughput:histogram:rangemin 0
scalar v3_mesh.Router1.eth[0].mac throughput:histogram:rangemax 384400
scalar v3_mesh.Router1.eth[0].mac throughput:histogram:underflows 0
scalar v3_mesh.Router1.eth[0].mac throughput:histogram:overflows 0
scalar v3_mesh.Router1.eth[0].mac utilization:histogram:count 5000
scalar v3_mesh.Router1.eth[0].mac utilization:histogram:sumweights 5000
scalar v3_mesh.Router1.eth[0].mac utilization:histogram:mean 0.000356288
scalar v3_mesh.Router1.eth[0].mac utilization:histogram:stddev 0.008832133315164314
scalar v3_mesh.Router1.eth[0].mac utilization:histogram:min 0
scalar v3_mesh.Router1.eth[0].mac utilization:histogram:max 0.38112
scalar v3_mesh.Router1.eth[0].mac utilization:histogram:numbins 62
scalar v3_mesh.Router1.eth[0].mac utilization:histogram:rangemin 0
scalar v3_mesh.Router1.eth[0].mac utilization:histogram:rangemax 0.38439999999999996
scalar v3_mesh.Router1.eth[0].mac utilization:histogram:underflows 0
scalar v3_mesh.Router1.eth[0].mac utilization:histogram:overflows 0
scalar v3_mesh.Router1.eth[1].queue queueingTime:histogram:count 123
scalar v3_mesh.Router1.eth[1].queue queueingTime:histogram:sumweights 123
scalar v3_mesh.Router1.eth[1].queue queueingTime:histogram:mean 1.6249756097560975e-05
scalar v3_mesh.Router1.eth[1].queue queueingTime:histogram:stddev 2.9635206285419515e-05
scalar v3_mesh.Router1.eth[1].queue queueingTime:histogram:min 0
scalar v3_mesh.Router1.eth[1].queue queueingTime:histogram:max 0.00011593999999999999
scalar v3_mesh.Router1.eth[1].queue queueingTime:histogram:numbins 73
scalar v3_mesh.Router1.eth[1].queue queueingTime:histogram:rangemin 0
scalar v3_mesh.Router1.eth[1].queue queueingTime:histogram:rangemax 0.00014600000000000003
scalar v3_mesh.Router1.eth[1].queue queueingTime:histogram:underflows 0
scalar v3_mesh.Router1.eth[1].queue queueingTime:histogram:overflows 0
scalar v3_mesh.Router1.eth[1].queue outgoingPacketLengths:histogram:count 123
scalar v3_mesh.Router1.eth[1].queue outgoingPacketLengths:histogram:sumweights 123
scalar v3_mesh.Router1.eth[1].queue outgoingPacketLengths:histogram:mean 870.3739837398374
scalar v3_mesh.Router1.eth[1].queue outgoingPacketLengths:histogram:stddev 269.66589523948187
scalar v3_mesh.Router1.eth[1].queue outgoingPacketLengths:histogram:min 688
scalar v3_mesh.Router1.eth[1].queue outgoingPacketLengths:histogram:max 3120
scalar v3_mesh.Router1.eth[1].queue outgoingPacketLengths:histogram:numbins 74
scalar v3_mesh.Router1.eth[1].queue outgoingPacketLengths:histogram:rangemin 50
scalar v3_mesh.Router1.eth[1].queue outgoingPacketLengths:histogram:rangemax 3750
scalar v3_mesh.Router1.eth[1].queue outgoingPacketLengths:histogram:underflows 0
scalar v3_mesh.Router1.eth[1].queue outgoingPacketLengths:histogram:overflows 0
scalar v3_mesh.Router1.eth[1].queue flowQueueingTime:histogram:count 0
scalar v3_mesh.Router1.eth[1].queue flowQueueingTime:histogram:sumweights 0
scalar v3_mesh.Router1.eth[1].queue flowQueueingTime:histogram:mean nan
scalar v3_mesh.Router1.eth[1].queue flowQueueingTime:histogram:stddev nan
scalar v3_mesh.Router1.eth[1].queue flowQueueingTime:histogram:min nan
scalar v3_mesh.Router1.eth[1].queue flowQueueingTime:histogram:max nan
scalar v3_mesh.Router1.eth[1].queue flowQueueingTime:histogram:numbins 1
scalar v3_mesh.Router1.eth[1].queue flowQueueingTime:histogram:rangemin 0
scalar v3_mesh.Router1.eth[1].queue flowQueueingTime:histogram:rangemax 1
scalar v3_mesh.Router1.eth[1].queue flowQueueingTime:histogram:underflows 0
scalar v3_mesh.Router1.eth[1].queue flowQueueingTime:histogram:overflows 0
scalar v3_mesh.Router1.eth[1].queue incomingPacketLengths:histogram:count 123
scalar v3_mesh.Router1.eth[1].queue incomingPacketLengths:histogram:sumweights 123
scalar v3_mesh.Router1.eth[1].queue incomingPacketLengths:histogram:mean 870.3739837398374
scalar v3_mesh.Router1.eth[1].queue incomingPacketLengths:histogram:stddev 269.66589523948187
scalar v3_mesh.Router1.eth[1].queue incomingPacketLengths:histogram:min 688
scalar v3_mesh.Router1.eth[1].queue incomingPacketLengths:histogram:max 3120
scalar v3_mesh.Router1.eth[1].queue incomingPacketLengths:histogram:numbins 74
scalar v3_mesh.Router1.eth[1].queue incomingPacketLengths:histogram:rangemin 50
scalar v3_mesh.Router1.eth[1].queue incomingPacketLengths:histogram:rangemax 3750
scalar v3_mesh.Router1.eth[1].queue incomingPacketLengths:histogram:underflows 0
scalar v3_mesh.Router1.eth[1].queue incomingPacketLengths:histogram:overflows 0
scalar v3_mesh.Router1.eth[1].mac throughput:histogram:count 5000
scalar v3_mesh.Router1.eth[1].mac throughput:histogram:sumweights 5000
scalar v3_mesh.Router1.eth[1].mac throughput:histogram:mean 229.856
scalar v3_mesh.Router1.eth[1].mac throughput:histogram:stddev 4570.300128866548
scalar v3_mesh.Router1.eth[1].mac throughput:histogram:min 0
scalar v3_mesh.Router1.eth[1].mac throughput:histogram:max 228960.00000000003
scalar v3_mesh.Router1.eth[1].mac throughput:histogram:numbins 58
scalar v3_mesh.Router1.eth[1].mac throughput:histogram:rangemin 0
scalar v3_mesh.Router1.eth[1].mac throughput:histogram:rangemax 232000
scalar v3_mesh.Router1.eth[1].mac throughput:histogram:underflows 0
scalar v3_mesh.Router1.eth[1].mac throughput:histogram:overflows 0
scalar v3_mesh.Router1.eth[1].mac utilization:histogram:count 5000
scalar v3_mesh.Router1.eth[1].mac utilization:histogram:sumweights 5000
scalar v3_mesh.Router1.eth[1].mac utilization:histogram:mean 0.00022985600000000007
scalar v3_mesh.Router1.eth[1].mac utilization:histogram:stddev 0.004570300128866549
scalar v3_mesh.Router1.eth[1].mac utilization:histogram:min 0
scalar v3_mesh.Router1.eth[1].mac utilization:histogram:max 0.22896000000000005
scalar v3_mesh.Router1.eth[1].mac utilization:histogram:numbins 58
scalar v3_mesh.Router1.eth[1].mac utilization:histogram:rangemin 0
scalar v3_mesh.Router1.eth[1].mac utilization:histogram:rangemax 0.23199999999999998
scalar v3_mesh.Router1.eth[1].mac utilization:histogram:underflows 0
scalar v3_mesh.Router1.eth[1].mac utilization:histogram:overflows 0
scalar v3_mesh.Router2.eth[0].queue queueingTime:histogram:count 217
scalar v3_mesh.Router2.eth[0].queue queueingTime:histogram:sumweights 217
scalar v3_mesh.Router2.eth[0].queue queueingTime:histogram:mean 2.8875668202764977e-05
scalar v3_mesh.Router2.eth[0].queue queueingTime:histogram:stddev 4.02823030443403e-05
scalar v3_mesh.Router2.eth[0].queue queueingTime:histogram:min 0
scalar v3_mesh.Router2.eth[0].queue queueingTime:histogram:max 0.0001391
scalar v3_mesh.Router2.eth[0].queue queueingTime:histogram:numbins 87
scalar v3_mesh.Router2.eth[0].queue queueingTime:histogram:rangemin 0
scalar v3_mesh.Router2.eth[0].queue queueingTime:histogram:rangemax 0.00017400000000000003
scalar v3_mesh.Router2.eth[0].queue queueingTime:histogram:underflows 0
scalar v3_mesh.Router2.eth[0].queue queueingTime:histogram:overflows 0
scalar v3_mesh.Router2.eth[0].queue outgoingPacketLengths:histogram:count 217
scalar v3_mesh.Router2.eth[0].queue outgoingPacketLengths:histogram:sumweights 217
scalar v3_mesh.Router2.eth[0].queue outgoingPacketLengths:histogram:mean 892.6820276497696
scalar v3_mesh.Router2.eth[0].queue outgoingPacketLengths:histogram:stddev 325.65315464340733
scalar v3_mesh.Router2.eth[0].queue outgoingPacketLengths:histogram:min 688
scalar v3_mesh.Router2.eth[0].queue outgoingPacketLengths:histogram:max 4592
scalar v3_mesh.Router2.eth[0].queue outgoingPacketLengths:histogram:numbins 53
scalar v3_mesh.Router2.eth[0].queue outgoingPacketLengths:histogram:rangemin 400
scalar v3_mesh.Router2.eth[0].queue outgoingPacketLengths:histogram:rangemax 4640
scalar v3_mesh.Router2.eth[0].queue outgoingPacketLengths:histogram:underflows 0
scalar v3_mesh.Router2.eth[0].queue outgoingPacketLengths:histogram:overflows 0
scalar v3_mesh.Router2.eth[0].queue flowQueueingTime:histogram:count 0
scalar v3_mesh.Router2.eth[0].queue flowQueueingTime:histogram:sumweights 0
scalar v3_mesh.Router2.eth[0].queue flowQueueingTime:histogram:mean nan
scalar v3_mesh.Router2.eth[0].queue flowQueueingTime:histogram:stddev nan
scalar v3_mesh.Router2.eth[0].queue flowQueueingTime:histogram:min nan
scalar v3_mesh.Router2.eth[0].queue flowQueueingTime:histogram:max nan
scalar v3_mesh.Router2.eth[0].queue flowQueueingTime:histogram:numbins 1
scalar v3_mesh.Router2.eth[0].queue flowQueueingTime:histogram:rangemin 0
scalar v3_mesh.Router2.eth[0].queue flowQueueingTime:histogram:rangemax 1
scalar v3_mesh.Router2.eth[0].queue flowQueueingTime:histogram:underflows 0
scalar v3_mesh.Router2.eth[0].queue flowQueueingTime:histogram:overflows 0
scalar v3_mesh.Router2.eth[0].queue incomingPacketLengths:histogram:count 217
scalar v3_mesh.Router2.eth[0].queue incomingPacketLengths:histogram:sumweights 217
scalar v3_mesh.Router2.eth[0].queue incomingPacketLengths:histogram:mean 892.6820276497696
[...]
scalar v3_mesh.Router6.eth[2].queue flowIncomingDataRate:vector:mean 0
scalar v3_mesh.Router6.eth[2].queue flowIncomingDataRate:vector:stddev 0
scalar v3_mesh.Router6.eth[2].queue flowIncomingDataRate:vector:min 0
scalar v3_mesh.Router6.eth[2].queue flowIncomingDataRate:vector:max 0
scalar v3_mesh.Router6.eth[2].queue flowIncomingDataRate:vector:starttime 0.1
scalar v3_mesh.Router6.eth[2].queue flowIncomingDataRate:vector:endtime 500
scalar v3_mesh.Router6.eth[2].queue flowOutgoingDataRate:vector:count 5000
scalar v3_mesh.Router6.eth[2].queue flowOutgoingDataRate:vector:sum 0
scalar v3_mesh.Router6.eth[2].queue flowOutgoingDataRate:vector:sumweights 5000
scalar v3_mesh.Router6.eth[2].queue flowOutgoingDataRate:vector:mean 0
scalar v3_mesh.Router6.eth[2].queue flowOutgoingDataRate:vector:stddev 0
scalar v3_mesh.Router6.eth[2].queue flowOutgoingDataRate:vector:min 0
scalar v3_mesh.Router6.eth[2].queue flowOutgoingDataRate:vector:max 0
scalar v3_mesh.Router6.eth[2].queue flowOutgoingDataRate:vector:starttime 0.1
scalar v3_mesh.Router6.eth[2].queue flowOutgoingDataRate:vector:endtime 500
scalar v3_mesh.Router6.eth[2].mac transmitting:vector:count 278
scalar v3_mesh.Router6.eth[2].mac transmitting:vector:sum 138
scalar v3_mesh.Router6.eth[2].mac transmitting:vector:sumweights 278
scalar v3_mesh.Router6.eth[2].mac transmitting:vector:mean 0.49640287769784175
scalar v3_mesh.Router6.eth[2].mac transmitting:vector:stddev 0.5008887511960329
scalar v3_mesh.Router6.eth[2].mac transmitting:vector:min 0
scalar v3_mesh.Router6.eth[2].mac transmitting:vector:max 1
scalar v3_mesh.Router6.eth[2].mac transmitting:vector:starttime 0
scalar v3_mesh.Router6.eth[2].mac transmitting:vector:endtime 495.0000084800001
scalar v3_mesh.Router6.eth[2].mac throughput:vector:count 5000
scalar v3_mesh.Router6.eth[2].mac throughput:vector:sum 1368640.0000000002
scalar v3_mesh.Router6.eth[2].mac throughput:vector:sumweights 5000
scalar v3_mesh.Router6.eth[2].mac throughput:vector:mean 273.72800000000007
scalar v3_mesh.Router6.eth[2].mac throughput:vector:stddev 6609.84398828943
scalar v3_mesh.Router6.eth[2].mac throughput:vector:min 0
scalar v3_mesh.Router6.eth[2].mac throughput:vector:max 368000.00000000006
scalar v3_mesh.Router6.eth[2].mac throughput:vector:starttime 0.1
scalar v3_mesh.Router6.eth[2].mac throughput:vector:endtime 500
scalar v3_mesh.Router6.eth[2].mac utilization:vector:count 5000
scalar v3_mesh.Router6.eth[2].mac utilization:vector:sum 1.36864
scalar v3_mesh.Router6.eth[2].mac utilization:vector:sumweights 5000
scalar v3_mesh.Router6.eth[2].mac utilization:vector:mean 0.000273728
scalar v3_mesh.Router6.eth[2].mac utilization:vector:stddev 0.006609843988289428
scalar v3_mesh.Router6.eth[2].mac utilization:vector:min 0
scalar v3_mesh.Router6.eth[2].mac utilization:vector:max 0.3679999999999999
scalar v3_mesh.Router6.eth[2].mac utilization:vector:starttime 0.1
scalar v3_mesh.Router6.eth[2].mac utilization:vector:endtime 500
scalar v3_mesh.Router6.eth[2].mac txPk:vector(packetBytes):count 138
scalar v3_mesh.Router6.eth[2].mac txPk:vector(packetBytes):sum 16004
scalar v3_mesh.Router6.eth[2].mac txPk:vector(packetBytes):sumweights 138
scalar v3_mesh.Router6.eth[2].mac txPk:vector(packetBytes):mean 115.97101449275362
scalar v3_mesh.Router6.eth[2].mac txPk:vector(packetBytes):stddev 50.011960909364355
scalar v3_mesh.Router6.eth[2].mac txPk:vector(packetBytes):min 86
scalar v3_mesh.Router6.eth[2].mac txPk:vector(packetBytes):max 598
scalar v3_mesh.Router6.eth[2].mac txPk:vector(packetBytes):starttime 5.000008160000001
scalar v3_mesh.Router6.eth[2].mac txPk:vector(packetBytes):endtime 495.0000084800001
scalar v3_mesh.Router6.eth[2].mac rxPkOk:vector(packetBytes):count 121
scalar v3_mesh.Router6.eth[2].mac rxPkOk:vector(packetBytes):sum 13574
scalar v3_mesh.Router6.eth[2].mac rxPkOk:vector(packetBytes):sumweights 121
scalar v3_mesh.Router6.eth[2].mac rxPkOk:vector(packetBytes):mean 112.18181818181819
scalar v3_mesh.Router6.eth[2].mac rxPkOk:vector(packetBytes):stddev 39.89653284852373
scalar v3_mesh.Router6.eth[2].mac rxPkOk:vector(packetBytes):min 86
scalar v3_mesh.Router6.eth[2].mac rxPkOk:vector(packetBytes):max 462
scalar v3_mesh.Router6.eth[2].mac rxPkOk:vector(packetBytes):starttime 5.000008260000001
scalar v3_mesh.Router6.eth[2].mac rxPkOk:vector(packetBytes):endtime 495.0000085800001
scalar v3_mesh.Router6.eth[2].mac passedUpPk:vector(packetBytes):count 121
scalar v3_mesh.Router6.eth[2].mac passedUpPk:vector(packetBytes):sum 13574
scalar v3_mesh.Router6.eth[2].mac passedUpPk:vector(packetBytes):sumweights 121
scalar v3_mesh.Router6.eth[2].mac passedUpPk:vector(packetBytes):mean 112.18181818181819
scalar v3_mesh.Router6.eth[2].mac passedUpPk:vector(packetBytes):stddev 39.89653284852373
scalar v3_mesh.Router6.eth[2].mac passedUpPk:vector(packetBytes):min 86
scalar v3_mesh.Router6.eth[2].mac passedUpPk:vector(packetBytes):max 462
scalar v3_mesh.Router6.eth[2].mac passedUpPk:vector(packetBytes):starttime 5.000008260000001
scalar v3_mesh.Router6.eth[2].mac passedUpPk:vector(packetBytes):endtime 495.0000085800001
scalar v3_mesh.Router6.eth[2].mac txPausePkUnits:vector:count 0
scalar v3_mesh.Router6.eth[2].mac txPausePkUnits:vector:sum 0
scalar v3_mesh.Router6.eth[2].mac txPausePkUnits:vector:sumweights 0
scalar v3_mesh.Router6.eth[2].mac txPausePkUnits:vector:mean nan
scalar v3_mesh.Router6.eth[2].mac txPausePkUnits:vector:stddev nan
scalar v3_mesh.Router6.eth[2].mac txPausePkUnits:vector:min inf
scalar v3_mesh.Router6.eth[2].mac txPausePkUnits:vector:max -inf
scalar v3_mesh.Router6.eth[2].mac txPausePkUnits:vector:starttime nan
scalar v3_mesh.Router6.eth[2].mac txPausePkUnits:vector:endtime nan
scalar v3_mesh.Router6.eth[2].mac rxPausePkUnits:vector:count 0
scalar v3_mesh.Router6.eth[2].mac rxPausePkUnits:vector:sum 0
scalar v3_mesh.Router6.eth[2].mac rxPausePkUnits:vector:sumweights 0
scalar v3_mesh.Router6.eth[2].mac rxPausePkUnits:vector:mean nan
scalar v3_mesh.Router6.eth[2].mac rxPausePkUnits:vector:stddev nan
scalar v3_mesh.Router6.eth[2].mac rxPausePkUnits:vector:min inf
scalar v3_mesh.Router6.eth[2].mac rxPausePkUnits:vector:max -inf
scalar v3_mesh.Router6.eth[2].mac rxPausePkUnits:vector:starttime nan
scalar v3_mesh.Router6.eth[2].mac rxPausePkUnits:vector:endtime nan
scalar v3_mesh.Router6.eth[2].mac packetReceivedFromUpper:vector(packetBytes):count 138
scalar v3_mesh.Router6.eth[2].mac packetReceivedFromUpper:vector(packetBytes):sum 16004
scalar v3_mesh.Router6.eth[2].mac packetReceivedFromUpper:vector(packetBytes):sumweights 138
scalar v3_mesh.Router6.eth[2].mac packetReceivedFromUpper:vector(packetBytes):mean 115.97101449275362
scalar v3_mesh.Router6.eth[2].mac packetReceivedFromUpper:vector(packetBytes):stddev 50.011960909364355
scalar v3_mesh.Router6.eth[2].mac packetReceivedFromUpper:vector(packetBytes):min 86
scalar v3_mesh.Router6.eth[2].mac packetReceivedFromUpper:vector(packetBytes):max 598
scalar v3_mesh.Router6.eth[2].mac packetReceivedFromUpper:vector(packetBytes):starttime 5
scalar v3_mesh.Router6.eth[2].mac packetReceivedFromUpper:vector(packetBytes):endtime 495
scalar v3_mesh.Router6.eth[2].mac packetDropIncorrectlyReceived:vector(packetBytes):count 0
scalar v3_mesh.Router6.eth[2].mac packetDropIncorrectlyReceived:vector(packetBytes):sum 0
scalar v3_mesh.Router6.eth[2].mac packetDropIncorrectlyReceived:vector(packetBytes):sumweights 0
scalar v3_mesh.Router6.eth[2].mac packetDropIncorrectlyReceived:vector(packetBytes):mean nan
scalar v3_mesh.Router6.eth[2].mac packetDropIncorrectlyReceived:vector(packetBytes):stddev nan
scalar v3_mesh.Router6.eth[2].mac packetDropIncorrectlyReceived:vector(packetBytes):min inf
scalar v3_mesh.Router6.eth[2].mac packetDropIncorrectlyReceived:vector(packetBytes):max -inf
scalar v3_mesh.Router6.eth[2].mac packetDropIncorrectlyReceived:vector(packetBytes):starttime nan
scalar v3_mesh.Router6.eth[2].mac packetDropIncorrectlyReceived:vector(packetBytes):endtime nan
scalar v3_mesh.Router6.eth[2].mac packetDropInterfaceDown:vector(packetBytes):count 0
scalar v3_mesh.Router6.eth[2].mac packetDropInterfaceDown:vector(packetBytes):sum 0
scalar v3_mesh.Router6.eth[2].mac packetDropInterfaceDown:vector(packetBytes):sumweights 0
scalar v3_mesh.Router6.eth[2].mac packetDropInterfaceDown:vector(packetBytes):mean nan
scalar v3_mesh.Router6.eth[2].mac packetDropInterfaceDown:vector(packetBytes):stddev nan
scalar v3_mesh.Router6.eth[2].mac packetDropInterfaceDown:vector(packetBytes):min inf
scalar v3_mesh.Router6.eth[2].mac packetDropInterfaceDown:vector(packetBytes):max -inf
scalar v3_mesh.Router6.eth[2].mac packetDropInterfaceDown:vector(packetBytes):starttime nan
scalar v3_mesh.Router6.eth[2].mac packetDropInterfaceDown:vector(packetBytes):endtime nan
scalar v3_mesh.Router6.eth[2].mac packetDropNotAddressedToUs:vector(packetBytes):count 0
scalar v3_mesh.Router6.eth[2].mac packetDropNotAddressedToUs:vector(packetBytes):sum 0
scalar v3_mesh.Router6.eth[2].mac packetDropNotAddressedToUs:vector(packetBytes):sumweights 0
scalar v3_mesh.Router6.eth[2].mac packetDropNotAddressedToUs:vector(packetBytes):mean nan
scalar v3_mesh.Router6.eth[2].mac packetDropNotAddressedToUs:vector(packetBytes):stddev nan
scalar v3_mesh.Router6.eth[2].mac packetDropNotAddressedToUs:vector(packetBytes):min inf
scalar v3_mesh.Router6.eth[2].mac packetDropNotAddressedToUs:vector(packetBytes):max -inf
scalar v3_mesh.Router6.eth[2].mac packetDropNotAddressedToUs:vector(packetBytes):starttime nan
scalar v3_mesh.Router6.eth[2].mac packetDropNotAddressedToUs:vector(packetBytes):endtime nan
scalar v3_mesh.Router6.eth[2] packetDropInterfaceDown:vector(packetBytes):count 0
scalar v3_mesh.Router6.eth[2] packetDropInterfaceDown:vector(packetBytes):sum 0
scalar v3_mesh.Router6.eth[2] packetDropInterfaceDown:vector(packetBytes):sumweights 0
scalar v3_mesh.Router6.eth[2] packetDropInterfaceDown:vector(packetBytes):mean nan
scalar v3_mesh.Router6.eth[2] packetDropInterfaceDown:vector(packetBytes):stddev nan
scalar v3_mesh.Router6.eth[2] packetDropInterfaceDown:vector(packetBytes):min inf
scalar v3_mesh.Router6.eth[2] packetDropInterfaceDown:vector(packetBytes):max -inf
scalar v3_mesh.Router6.eth[2] packetDropInterfaceDown:vector(packetBytes):starttime nan
scalar v3_mesh.Router6.eth[2] packetDropInterfaceDown:vector(packetBytes):endtime nan
scalar v3_mesh.Router6.eth[2] packetDropNoCarrier:vector(packetBytes):count 0
scalar v3_mesh.Router6.eth[2] packetDropNoCarrier:vector(packetBytes):sum 0
scalar v3_mesh.Router6.eth[2] packetDropNoCarrier:vector(packetBytes):sumweights 0
scalar v3_mesh.Router6.eth[2] packetDropNoCarrier:vector(packetBytes):mean nan
scalar v3_mesh.Router6.eth[2] packetDropNoCarrier:vector(packetBytes):stddev nan
scalar v3_mesh.Router6.eth[2] packetDropNoCarrier:vector(packetBytes):min inf
scalar v3_mesh.Router6.eth[2] packetDropNoCarrier:vector(packetBytes):max -inf
scalar v3_mesh.Router6.eth[2] packetDropNoCarrier:vector(packetBytes):starttime nan
scalar v3_mesh.Router6.eth[2] packetDropNoCarrier:vector(packetBytes):endtime nan
scalar v3_mesh.Router6.ipv4.ip packetDropAddressResolutionFailed:vector(packetBytes):count 0
scalar v3_mesh.Router6.ipv4.ip packetDropAddressResolutionFailed:vector(packetBytes):sum 0
scalar v3_mesh.Router6.ipv4.ip packetDropAddressResolutionFailed:vector(packetBytes):sumweights 0
scalar v3_mesh.Router6.ipv4.ip packetDropAddressResolutionFailed:vector(packetBytes):mean nan
scalar v3_mesh.Router6.ipv4.ip packetDropAddressResolutionFailed:vector(packetBytes):stddev nan
scalar v3_mesh.Router6.ipv4.ip packetDropAddressResolutionFailed:vector(packetBytes):min inf
scalar v3_mesh.Router6.ipv4.ip packetDropAddressResolutionFailed:vector(packetBytes):max -inf
scalar v3_mesh.Router6.ipv4.ip packetDropAddressResolutionFailed:vector(packetBytes):starttime nan
scalar v3_mesh.Router6.ipv4.ip packetDropAddressResolutionFailed:vector(packetBytes):endtime nan
scalar v3_mesh.Router6.ipv4.ip packetDropHopLimitReached:vector(packetBytes):count 0
scalar v3_mesh.Router6.ipv4.ip packetDropHopLimitReached:vector(packetBytes):sum 0
scalar v3_mesh.Router6.ipv4.ip packetDropHopLimitReached:vector(packetBytes):sumweights 0
scalar v3_mesh.Router6.ipv4.ip packetDropHopLimitReached:vector(packetBytes):mean nan
scalar v3_mesh.Router6.ipv4.ip packetDropHopLimitReached:vector(packetBytes):stddev nan
scalar v3_mesh.Router6.ipv4.ip packetDropHopLimitReached:vector(packetBytes):min inf
scalar v3_mesh.Router6.ipv4.ip packetDropHopLimitReached:vector(packetBytes):max -inf
scalar v3_mesh.Router6.ipv4.ip packetDropHopLimitReached:vector(packetBytes):starttime nan
scalar v3_mesh.Router6.ipv4.ip packetDropHopLimitReached:vector(packetBytes):endtime nan
scalar v3_mesh.Router6.ipv4.ip packetDropForwardingDisabled:vector(packetBytes):count 0
scalar v3_mesh.Router6.ipv4.ip packetDropForwardingDisabled:vector(packetBytes):sum 0
scalar v3_mesh.Router6.ipv4.ip packetDropForwardingDisabled:vector(packetBytes):sumweights 0
scalar v3_mesh.Router6.ipv4.ip packetDropForwardingDisabled:vector(packetBytes):mean nan
scalar v3_mesh.Router6.ipv4.ip packetDropForwardingDisabled:vector(packetBytes):stddev nan
scalar v3_mesh.Router6.ipv4.ip packetDropForwardingDisabled:vector(packetBytes):min inf
scalar v3_mesh.Router6.ipv4.ip packetDropForwardingDisabled:vector(packetBytes):max -inf
scalar v3_mesh.Router6.ipv4.ip packetDropForwardingDisabled:vector(packetBytes):starttime nan
scalar v3_mesh.Router6.ipv4.ip packetDropForwardingDisabled:vector(packetBytes):endtime nan
scalar v3_mesh.Router6.ipv4.ip packetDropLifetimeExpired:vector(packetBytes):count 0
scalar v3_mesh.Router6.ipv4.ip packetDropLifetimeExpired:vector(packetBytes):sum 0
scalar v3_mesh.Router6.ipv4.ip packetDropLifetimeExpired:vector(packetBytes):sumweights 0
scalar v3_mesh.Router6.ipv4.ip packetDropLifetimeExpired:vector(packetBytes):mean nan
scalar v3_mesh.Router6.ipv4.ip packetDropLifetimeExpired:vector(packetBytes):stddev nan
scalar v3_mesh.Router6.ipv4.ip packetDropLifetimeExpired:vector(packetBytes):min inf
scalar v3_mesh.Router6.ipv4.ip packetDropLifetimeExpired:vector(packetBytes):max -inf
scalar v3_mesh.Router6.ipv4.ip packetDropLifetimeExpired:vector(packetBytes):starttime nan
scalar v3_mesh.Router6.ipv4.ip packetDropLifetimeExpired:vector(packetBytes):endtime nan
scalar v3_mesh.Router6.ipv4.ip packetDropNoInterfaceFound:vector(packetBytes):count 0
scalar v3_mesh.Router6.ipv4.ip packetDropNoInterfaceFound:vector(packetBytes):sum 0
scalar v3_mesh.Router6.ipv4.ip packetDropNoInterfaceFound:vector(packetBytes):sumweights 0
scalar v3_mesh.Router6.ipv4.ip packetDropNoInterfaceFound:vector(packetBytes):mean nan
scalar v3_mesh.Router6.ipv4.ip packetDropNoInterfaceFound:vector(packetBytes):stddev nan
scalar v3_mesh.Router6.ipv4.ip packetDropNoInterfaceFound:vector(packetBytes):min inf
scalar v3_mesh.Router6.ipv4.ip packetDropNoInterfaceFound:vector(packetBytes):max -inf
scalar v3_mesh.Router6.ipv4.ip packetDropNoInterfaceFound:vector(packetBytes):starttime nan
scalar v3_mesh.Router6.ipv4.ip packetDropNoInterfaceFound:vector(packetBytes):endtime nan
scalar v3_mesh.Router6.ipv4.ip packetDropNoRouteFound:vector(packetBytes):count 0
scalar v3_mesh.Router6.ipv4.ip packetDropNoRouteFound:vector(packetBytes):sum 0
scalar v3_mesh.Router6.ipv4.ip packetDropNoRouteFound:vector(packetBytes):sumweights 0
scalar v3_mesh.Router6.ipv4.ip packetDropNoRouteFound:vector(packetBytes):mean nan
scalar v3_mesh.Router6.ipv4.ip packetDropNoRouteFound:vector(packetBytes):stddev nan
scalar v3_mesh.Router6.ipv4.ip packetDropNoRouteFound:vector(packetBytes):min inf
scalar v3_mesh.Router6.ipv4.ip packetDropNoRouteFound:vector(packetBytes):max -inf
scalar v3_mesh.Router6.ipv4.ip packetDropNoRouteFound:vector(packetBytes):starttime nan
scalar v3_mesh.Router6.ipv4.ip packetDropNoRouteFound:vector(packetBytes):endtime nan
scalar v3_mesh.Router6.ipv4.ip packetDropUndefined:vector(packetBytes):count 0
scalar v3_mesh.Router6.ipv4.ip packetDropUndefined:vector(packetBytes):sum 0
scalar v3_mesh.Router6.ipv4.ip packetDropUndefined:vector(packetBytes):sumweights 0
scalar v3_mesh.Router6.ipv4.ip packetDropUndefined:vector(packetBytes):mean nan
scalar v3_mesh.Router6.ipv4.ip packetDropUndefined:vector(packetBytes):stddev nan
scalar v3_mesh.Router6.ipv4.ip packetDropUndefined:vector(packetBytes):min inf
scalar v3_mesh.Router6.ipv4.ip packetDropUndefined:vector(packetBytes):max -inf
scalar v3_mesh.Router6.ipv4.ip packetDropUndefined:vector(packetBytes):starttime nan
scalar v3_mesh.Router6.ipv4.ip packetDropUndefined:vector(packetBytes):endtime nan
scalar v3_mesh.Router6.ipv4.arp arpRequestSent:vector(packetBytes):count 0
scalar v3_mesh.Router6.ipv4.arp arpRequestSent:vector(packetBytes):sum 0
scalar v3_mesh.Router6.ipv4.arp arpRequestSent:vector(packetBytes):sumweights 0
scalar v3_mesh.Router6.ipv4.arp arpRequestSent:vector(packetBytes):mean nan
scalar v3_mesh.Router6.ipv4.arp arpRequestSent:vector(packetBytes):stddev nan
scalar v3_mesh.Router6.ipv4.arp arpRequestSent:vector(packetBytes):min inf
scalar v3_mesh.Router6.ipv4.arp arpRequestSent:vector(packetBytes):max -inf
scalar v3_mesh.Router6.ipv4.arp arpRequestSent:vector(packetBytes):starttime nan
scalar v3_mesh.Router6.ipv4.arp arpRequestSent:vector(packetBytes):endtime nan
scalar v3_mesh.Router6.ipv4.arp arpReplySent:vector(packetBytes):count 0
scalar v3_mesh.Router6.ipv4.arp arpReplySent:vector(packetBytes):sum 0
scalar v3_mesh.Router6.ipv4.arp arpReplySent:vector(packetBytes):sumweights 0
scalar v3_mesh.Router6.ipv4.arp arpReplySent:vector(packetBytes):mean nan
scalar v3_mesh.Router6.ipv4.arp arpReplySent:vector(packetBytes):stddev nan
scalar v3_mesh.Router6.ipv4.arp arpReplySent:vector(packetBytes):min inf
scalar v3_mesh.Router6.ipv4.arp arpReplySent:vector(packetBytes):max -inf
scalar v3_mesh.Router6.ipv4.arp arpReplySent:vector(packetBytes):starttime nan
scalar v3_mesh.Router6.ipv4.arp arpReplySent:vector(packetBytes):endtime nan
scalar v3_mesh.Router6.ipv6.neighbourDiscovery startDad:vector:count 0
scalar v3_mesh.Router6.ipv6.neighbourDiscovery startDad:vector:sum 0
scalar v3_mesh.Router6.ipv6.neighbourDiscovery startDad:vector:sumweights 0
scalar v3_mesh.Router6.ipv6.neighbourDiscovery startDad:vector:mean nan
scalar v3_mesh.Router6.ipv6.neighbourDiscovery startDad:vector:stddev nan
scalar v3_mesh.Router6.ipv6.neighbourDiscovery startDad:vector:min inf
scalar v3_mesh.Router6.ipv6.neighbourDiscovery startDad:vector:max -inf
scalar v3_mesh.Router6.ipv6.neighbourDiscovery startDad:vector:starttime nan
scalar v3_mesh.Router6.ipv6.neighbourDiscovery startDad:vector:endtime nan
scalar v3_mesh.Router6.ipv6.neighbourDiscovery dadCompleted:vector:count 0
scalar v3_mesh.Router6.ipv6.neighbourDiscovery dadCompleted:vector:sum 0
scalar v3_mesh.Router6.ipv6.neighbourDiscovery dadCompleted:vector:sumweights 0
scalar v3_mesh.Router6.ipv6.neighbourDiscovery dadCompleted:vector:mean nan
scalar v3_mesh.Router6.ipv6.neighbourDiscovery dadCompleted:vector:stddev nan
scalar v3_mesh.Router6.ipv6.neighbourDiscovery dadCompleted:vector:min inf
scalar v3_mesh.Router6.ipv6.neighbourDiscovery dadCompleted:vector:max -inf
scalar v3_mesh.Router6.ipv6.neighbourDiscovery dadCompleted:vector:starttime nan
scalar v3_mesh.Router6.ipv6.neighbourDiscovery dadCompleted:vector:endtime nan
scalar v3_mesh.Router6.ipv6.neighbourDiscovery dadFailed:vector:count 0
scalar v3_mesh.Router6.ipv6.neighbourDiscovery dadFailed:vector:sum 0
scalar v3_mesh.Router6.ipv6.neighbourDiscovery dadFailed:vector:sumweights 0
scalar v3_mesh.Router6.ipv6.neighbourDiscovery dadFailed:vector:mean nan
scalar v3_mesh.Router6.ipv6.neighbourDiscovery dadFailed:vector:stddev nan
scalar v3_mesh.Router6.ipv6.neighbourDiscovery dadFailed:vector:min inf
scalar v3_mesh.Router6.ipv6.neighbourDiscovery dadFailed:vector:max -inf
scalar v3_mesh.Router6.ipv6.neighbourDiscovery dadFailed:vector:starttime nan
scalar v3_mesh.Router6.ipv6.neighbourDiscovery dadFailed:vector:endtime nan

