version 3
run General-0-20250108-11:30:58-12253
attr configname General
attr datetime 20250108-11:30:58
attr datetimef 20250108-113058
attr experiment General
attr inifile omnetpp.ini
attr iterationvars ""
attr iterationvarsd ""
attr iterationvarsf ""
attr measurement ""
attr network multi
attr processid 12253
attr repetition 0
attr replication #0
attr resultdir results
attr runnumber 0
attr seedset 0
config **.param-recording false
config image-path /home/levy/workspace/inet/images
config output-scalar-file results/omnetpp.ini-General-#0.sca
config output-vector-file results/omnetpp.ini-General-#0.vec
config sim-time-limit 500s
config sim-time-limit 500s
config network multi
config cmdenv-runs-to-execute 0
config multi.testing false
config multi.testTimeout 0s
config *.cli1.hasSctp true
config *.srv1.hasSctp true
config **.cli1.numApps 1
config **.cli1.app[0].typename SctpClient
config **.cli1.app[0].localAddress "\"\""
config **.cli1.app[0].connectAddress "\"srv1%ppp0\""
config **.cli1.app[0].connectPort 6666
config **.cli1.app[0].startTime 1s
config **.cli1.app[0].numRequestsPerSession 100
config **.cli1.app[0].requestLength 1000
config **.srv1.numApps 1
config **.srv1.app[0].typename SctpServer
config **.srv1.app[0].localAddress "\"\""
config **.srv1.app[0].localPort 6666
config **.srv1.app[0].numPacketsToReceivePerClient 100
config **.sctp.crcMode "\"computed\""
config **.ipv4.**.crcMode "\"computed\""
config **.srv1.numPcapRecorders 1
config **.srv1.pcapRecorder[0].pcapFile "\"results/server1.pcap\""
config **.cli1.numPcapRecorders 1
config **.cli1.pcapRecorder[0].pcapFile "\"results/client1.pcap\""
config **.ppp[*].queue.typename DropTailQueue
config **.ppp[*].queue.packetCapacity 20

scalar multi.cli1.app[0] ums 1000
scalar multi.cli1.sctp "Number of Fast Retransmissions 1:10.1.3.1" 0
scalar multi.cli1.sctp "Number of Timer-Based Retransmissions 1:10.1.3.1" 0
scalar multi.cli1.sctp "Number of Heartbeats Sent 1:10.1.3.1" 0
scalar multi.cli1.sctp "Number of Heartbeats Received 1:10.1.3.1" 0
scalar multi.cli1.sctp "Number of Heartbeat ACKs Sent 1:10.1.3.1" 0
scalar multi.cli1.sctp "Number of Heartbeat ACKs Received 1:10.1.3.1" 0
scalar multi.cli1.sctp "Number of Duplicates 1:10.1.3.1" 0
scalar multi.cli1.sctp "Number of Bytes received from 1:10.1.3.1" 0
scalar multi.cli1.sctp "Number of Fast Retransmissions 1:10.2.3.1" 0
scalar multi.cli1.sctp "Number of Timer-Based Retransmissions 1:10.2.3.1" 0
scalar multi.cli1.sctp "Number of Heartbeats Sent 1:10.2.3.1" 1
scalar multi.cli1.sctp "Number of Heartbeats Received 1:10.2.3.1" 1
scalar multi.cli1.sctp "Number of Heartbeat ACKs Sent 1:10.2.3.1" 1
scalar multi.cli1.sctp "Number of Heartbeat ACKs Received 1:10.2.3.1" 1
scalar multi.cli1.sctp "Number of Duplicates 1:10.2.3.1" 0
scalar multi.cli1.sctp "Number of Bytes received from 1:10.2.3.1" 0
scalar multi.cli1.sctp "Bytes received on stream 0 of assoc 1" 0
scalar multi.cli1.sctp "Blocking TSNs Moved" 0
scalar multi.srv1.sctp "Number of Fast Retransmissions 16:10.1.1.1" 0
scalar multi.srv1.sctp "Number of Timer-Based Retransmissions 16:10.1.1.1" 0
scalar multi.srv1.sctp "Number of Heartbeats Sent 16:10.1.1.1" 0
scalar multi.srv1.sctp "Number of Heartbeats Received 16:10.1.1.1" 0
scalar multi.srv1.sctp "Number of Heartbeat ACKs Sent 16:10.1.1.1" 0
scalar multi.srv1.sctp "Number of Heartbeat ACKs Received 16:10.1.1.1" 0
scalar multi.srv1.sctp "Number of Duplicates 16:10.1.1.1" 0
scalar multi.srv1.sctp "Number of Bytes received from 16:10.1.1.1" 100000
scalar multi.srv1.sctp "Number of Fast Retransmissions 16:10.2.1.1" 0
scalar multi.srv1.sctp "Number of Timer-Based Retransmissions 16:10.2.1.1" 0
scalar multi.srv1.sctp "Number of Heartbeats Sent 16:10.2.1.1" 1
scalar multi.srv1.sctp "Number of Heartbeats Received 16:10.2.1.1" 1
scalar multi.srv1.sctp "Number of Heartbeat ACKs Sent 16:10.2.1.1" 1
scalar multi.srv1.sctp "Number of Heartbeat ACKs Received 16:10.2.1.1" 1
scalar multi.srv1.sctp "Number of Duplicates 16:10.2.1.1" 0
scalar multi.srv1.sctp "Number of Bytes received from 16:10.2.1.1" 0
scalar multi.srv1.sctp "Bytes received on stream 0 of assoc 16" 4000
scalar multi.srv1.sctp "Blocking TSNs Moved" 0
scalar multi.cli1.lo[0].lo rcvdPkFromHl:count 0
scalar multi.cli1.lo[0].lo rcvdPkFromHl:sum(packetBytes) 0
scalar multi.cli1.lo[0].lo passedUpPk:count 0
scalar multi.cli1.lo[0].lo passedUpPk:sum(packetBytes) 0
scalar multi.cli1.lo[0] packetDropInterfaceDown:count 0
scalar multi.cli1.lo[0] packetDropInterfaceDown:sum(packetBytes) 0
scalar multi.cli1.lo[0] packetDropNoCarrier:count 0
scalar multi.cli1.lo[0] packetDropNoCarrier:sum(packetBytes) 0
scalar multi.cli1.ppp[0].queue queueLength:last 0
scalar multi.cli1.ppp[0].queue queueLength:max 2
scalar multi.cli1.ppp[0].queue queueLength:timeavg 1.444256e-06
scalar multi.cli1.ppp[0].queue queueBitLength:last 0
scalar multi.cli1.ppp[0].queue queueBitLength:max 65536
scalar multi.cli1.ppp[0].queue queueBitLength:timeavg 0.047325380608
scalar multi.cli1.ppp[0].queue outgoingPackets:count 29
scalar multi.cli1.ppp[0].queue outgoingPacketLengths:sum 821344
scalar multi.cli1.ppp[0].queue incomingPackets:count 29
scalar multi.cli1.ppp[0].queue incomingPacketLengths:sum 821344
scalar multi.cli1.ppp[0].queue droppedPacketsQueueOverflow:count 0
scalar multi.cli1.ppp[0].queue droppedPacketLengthsQueueOverflow:sum 0
scalar multi.cli1.ppp[0].ppp transmissionState:timeavg 1.645936e-06
scalar multi.cli1.ppp[0].ppp rxPkOk:count 17
scalar multi.cli1.ppp[0].ppp rxPkOk:sum(packetBytes) 1019
scalar multi.cli1.ppp[0].ppp txPk:count 29
scalar multi.cli1.ppp[0].ppp txPk:sum(packetBytes) 102871
scalar multi.cli1.ppp[0].ppp rcvdPkFromHl:count 29
scalar multi.cli1.ppp[0].ppp rcvdPkFromHl:sum(packetBytes) 102668
scalar multi.cli1.ppp[0].ppp passedUpPk:count 17
scalar multi.cli1.ppp[0].ppp passedUpPk:sum(packetBytes) 900
scalar multi.cli1.ppp[0].ppp packetDropIncorrectlyReceived:count 0
scalar multi.cli1.ppp[0].ppp packetDropIncorrectlyReceived:sum(packetBytes) 0
scalar multi.cli1.ppp[0].ppp packetDropInterfaceDown:count 0
scalar multi.cli1.ppp[0].ppp packetDropInterfaceDown:sum(packetBytes) 0
scalar multi.cli1.ppp[0] packetDropInterfaceDown:count 0
scalar multi.cli1.ppp[0] packetDropInterfaceDown:sum(packetBytes) 0
scalar multi.cli1.ppp[0] packetDropNoCarrier:count 0
scalar multi.cli1.ppp[0] packetDropNoCarrier:sum(packetBytes) 0
scalar multi.cli1.ppp[1].queue queueLength:last 0
scalar multi.cli1.ppp[1].queue queueLength:max 0
scalar multi.cli1.ppp[1].queue queueLength:timeavg 0
scalar multi.cli1.ppp[1].queue queueBitLength:last 0
scalar multi.cli1.ppp[1].queue queueBitLength:max 0
scalar multi.cli1.ppp[1].queue queueBitLength:timeavg 0
scalar multi.cli1.ppp[1].queue outgoingPackets:count 2
scalar multi.cli1.ppp[1].queue outgoingPacketLengths:sum 768
scalar multi.cli1.ppp[1].queue incomingPackets:count 2
scalar multi.cli1.ppp[1].queue incomingPacketLengths:sum 768
scalar multi.cli1.ppp[1].queue droppedPacketsQueueOverflow:count 0
scalar multi.cli1.ppp[1].queue droppedPacketLengthsQueueOverflow:sum 0
scalar multi.cli1.ppp[1].ppp transmissionState:timeavg 1.76e-09
scalar multi.cli1.ppp[1].ppp rxPkOk:count 2
scalar multi.cli1.ppp[1].ppp rxPkOk:sum(packetBytes) 110
scalar multi.cli1.ppp[1].ppp txPk:count 2
scalar multi.cli1.ppp[1].ppp txPk:sum(packetBytes) 110
scalar multi.cli1.ppp[1].ppp rcvdPkFromHl:count 2
scalar multi.cli1.ppp[1].ppp rcvdPkFromHl:sum(packetBytes) 96
scalar multi.cli1.ppp[1].ppp passedUpPk:count 2
scalar multi.cli1.ppp[1].ppp passedUpPk:sum(packetBytes) 96
scalar multi.cli1.ppp[1].ppp packetDropIncorrectlyReceived:count 0
scalar multi.cli1.ppp[1].ppp packetDropIncorrectlyReceived:sum(packetBytes) 0
scalar multi.cli1.ppp[1].ppp packetDropInterfaceDown:count 0
scalar multi.cli1.ppp[1].ppp packetDropInterfaceDown:sum(packetBytes) 0
scalar multi.cli1.ppp[1] packetDropInterfaceDown:count 0
scalar multi.cli1.ppp[1] packetDropInterfaceDown:sum(packetBytes) 0
scalar multi.cli1.ppp[1] packetDropNoCarrier:count 0
scalar multi.cli1.ppp[1] packetDropNoCarrier:sum(packetBytes) 0
scalar multi.cli1.ipv4.ip packetDropAddressResolutionFailed:count 0
scalar multi.cli1.ipv4.ip packetDropAddressResolutionFailed:sum(packetBytes) 0
scalar multi.cli1.ipv4.ip packetDropHopLimitReached:count 0
scalar multi.cli1.ipv4.ip packetDropHopLimitReached:sum(packetBytes) 0
scalar multi.cli1.ipv4.ip packetDropForwardingDisabled:count 0
scalar multi.cli1.ipv4.ip packetDropForwardingDisabled:sum(packetBytes) 0
scalar multi.cli1.ipv4.ip packetDropLifetimeExpired:count 0
scalar multi.cli1.ipv4.ip packetDropLifetimeExpired:sum(packetBytes) 0
scalar multi.cli1.ipv4.ip packetDropNoInterfaceFound:count 0
scalar multi.cli1.ipv4.ip packetDropNoInterfaceFound:sum(packetBytes) 0
scalar multi.cli1.ipv4.ip packetDropNoRouteFound:count 0
scalar multi.cli1.ipv4.ip packetDropNoRouteFound:sum(packetBytes) 0
scalar multi.cli1.ipv4.ip packetDropUndefined:count 0
scalar multi.cli1.ipv4.ip packetDropUndefined:sum(packetBytes) 0
scalar multi.cli1.ipv4.arp arpResolutionFailed:count 0
scalar multi.cli1.ipv4.arp arpResolutionCompleted:count 0
scalar multi.cli1.ipv4.arp arpResolutionInitiated:count 0
scalar multi.cli1.ipv4.arp arpReplySent:count 0
scalar multi.cli1.ipv4.arp arpReplySent:sum(packetBytes) 0
scalar multi.cli1.ipv4.arp arpRequestSent:count 0
scalar multi.cli1.ipv4.arp arpRequestSent:sum(packetBytes) 0
scalar multi.cli1.udp packetReceived:count 0
scalar multi.cli1.udp packetReceived:sum(packetBytes) 0
scalar multi.cli1.udp packetSent:count 0
scalar multi.cli1.udp packetSent:sum(packetBytes) 0
scalar multi.cli1.udp passedUpPk:count 0
scalar multi.cli1.udp droppedPkWrongPort:count 0
scalar multi.cli1.udp droppedPkBadChecksum:count 0
scalar multi.cli1.sctp "Association Lifetime" 1.302841024
scalar multi.cli1.sctp "Acked Bytes" 100000
scalar multi.cli1.sctp "Throughput [bit/s]" 614042.6846123
scalar multi.cli1.sctp "Transmitted Bytes" 100000
scalar multi.cli1.sctp "Fast RTX" 0
scalar multi.cli1.sctp "Timer-Based RTX" 0
scalar multi.cli1.sctp "Duplicate Acks" 0
scalar multi.cli1.sctp "Packets Received" 19
scalar multi.cli1.sctp "Packets Dropped" 0
scalar multi.cli1.sctp "Sum of R Gap Ranges" 0
scalar multi.cli1.sctp "Sum of NR Gap Ranges" 0
scalar multi.cli1.sctp "Overfull SACKs" 0
scalar multi.cli1.sctp "Drops Because New TSN Greater Than Highest TSN" 0
scalar multi.cli1.sctp "Drops Because No Room In Buffer" 0
scalar multi.cli1.sctp "Chunks Reneged" 0
scalar multi.cli1.sctp sackPeriod 0.2
scalar multi.cli1.sctp "Number of AUTH chunks sent" 0
scalar multi.cli1.sctp "Number of AUTH chunks accepted" 0
scalar multi.cli1.sctp "Number of AUTH chunks rejected" 0
scalar multi.cli1.sctp "Number of StreamReset requests sent" 0
scalar multi.cli1.sctp "Number of StreamReset requests performed" 0
scalar multi.cli1.sctp "Number of PacketDrop Reports" 0
scalar multi.cli1.sctp RTXMethod 0
scalar multi.cli1.app[0] packetReceived:count 0
scalar multi.cli1.app[0] packetReceived:sum(packetBytes) 0
scalar multi.cli1.app[0] packetSent:count 100
scalar multi.cli1.app[0] packetSent:sum(packetBytes) 100000
scalar multi.cli1.app[0] echoedPk:count 0
scalar multi.cli1.app[0] echoedPk:sum(packetBytes) 0
scalar multi.srv1.lo[0].lo rcvdPkFromHl:count 0
scalar multi.srv1.lo[0].lo rcvdPkFromHl:sum(packetBytes) 0
scalar multi.srv1.lo[0].lo passedUpPk:count 0
scalar multi.srv1.lo[0].lo passedUpPk:sum(packetBytes) 0
scalar multi.srv1.lo[0] packetDropInterfaceDown:count 0
scalar multi.srv1.lo[0] packetDropInterfaceDown:sum(packetBytes) 0
scalar multi.srv1.lo[0] packetDropNoCarrier:count 0
scalar multi.srv1.lo[0] packetDropNoCarrier:sum(packetBytes) 0
scalar multi.srv1.ppp[0].queue queueLength:last 0
scalar multi.srv1.ppp[0].queue queueLength:max 0
scalar multi.srv1.ppp[0].queue queueLength:timeavg 0
scalar multi.srv1.ppp[0].queue queueBitLength:last 0
scalar multi.srv1.ppp[0].queue queueBitLength:max 0
scalar multi.srv1.ppp[0].queue queueBitLength:timeavg 0
scalar multi.srv1.ppp[0].queue outgoingPackets:count 17
scalar multi.srv1.ppp[0].queue outgoingPacketLengths:sum 7200
scalar multi.srv1.ppp[0].queue incomingPackets:count 17
scalar multi.srv1.ppp[0].queue incomingPacketLengths:sum 7200
scalar multi.srv1.ppp[0].queue droppedPacketsQueueOverflow:count 0
scalar multi.srv1.ppp[0].queue droppedPacketLengthsQueueOverflow:sum 0
scalar multi.srv1.ppp[0].ppp transmissionState:timeavg 1.6304e-08
scalar multi.srv1.ppp[0].ppp rxPkOk:count 29
scalar multi.srv1.ppp[0].ppp rxPkOk:sum(packetBytes) 102871
scalar multi.srv1.ppp[0].ppp txPk:count 17
scalar multi.srv1.ppp[0].ppp txPk:sum(packetBytes) 1019
scalar multi.srv1.ppp[0].ppp rcvdPkFromHl:count 17
scalar multi.srv1.ppp[0].ppp rcvdPkFromHl:sum(packetBytes) 900
scalar multi.srv1.ppp[0].ppp passedUpPk:count 29
scalar multi.srv1.ppp[0].ppp passedUpPk:sum(packetBytes) 102668
scalar multi.srv1.ppp[0].ppp packetDropIncorrectlyReceived:count 0
scalar multi.srv1.ppp[0].ppp packetDropIncorrectlyReceived:sum(packetBytes) 0
scalar multi.srv1.ppp[0].ppp packetDropInterfaceDown:count 0
scalar multi.srv1.ppp[0].ppp packetDropInterfaceDown:sum(packetBytes) 0
scalar multi.srv1.ppp[0] packetDropInterfaceDown:count 0
scalar multi.srv1.ppp[0] packetDropInterfaceDown:sum(packetBytes) 0
scalar multi.srv1.ppp[0] packetDropNoCarrier:count 0
scalar multi.srv1.ppp[0] packetDropNoCarrier:sum(packetBytes) 0
scalar multi.srv1.ppp[1].queue queueLength:last 0
scalar multi.srv1.ppp[1].queue queueLength:max 0
scalar multi.srv1.ppp[1].queue queueLength:timeavg 0
scalar multi.srv1.ppp[1].queue queueBitLength:last 0
scalar multi.srv1.ppp[1].queue queueBitLength:max 0
scalar multi.srv1.ppp[1].queue queueBitLength:timeavg 0
scalar multi.srv1.ppp[1].queue outgoingPackets:count 2
scalar multi.srv1.ppp[1].queue outgoingPacketLengths:sum 768
scalar multi.srv1.ppp[1].queue incomingPackets:count 2
scalar multi.srv1.ppp[1].queue incomingPacketLengths:sum 768
scalar multi.srv1.ppp[1].queue droppedPacketsQueueOverflow:count 0
scalar multi.srv1.ppp[1].queue droppedPacketLengthsQueueOverflow:sum 0
scalar multi.srv1.ppp[1].ppp transmissionState:timeavg 1.76e-09
scalar multi.srv1.ppp[1].ppp rxPkOk:count 2
scalar multi.srv1.ppp[1].ppp rxPkOk:sum(packetBytes) 110
scalar multi.srv1.ppp[1].ppp txPk:count 2
scalar multi.srv1.ppp[1].ppp txPk:sum(packetBytes) 110
scalar multi.srv1.ppp[1].ppp rcvdPkFromHl:count 2
scalar multi.srv1.ppp[1].ppp rcvdPkFromHl:sum(packetBytes) 96
scalar multi.srv1.ppp[1].ppp passedUpPk:count 2
scalar multi.srv1.ppp[1].ppp passedUpPk:sum(packetBytes) 96
scalar multi.srv1.ppp[1].ppp packetDropIncorrectlyReceived:count 0
scalar multi.srv1.ppp[1].ppp packetDropIncorrectlyReceived:sum(packetBytes) 0
scalar multi.srv1.ppp[1].ppp packetDropInterfaceDown:count 0
scalar multi.srv1.ppp[1].ppp packetDropInterfaceDown:sum(packetBytes) 0
scalar multi.srv1.ppp[1] packetDropInterfaceDown:count 0
scalar multi.srv1.ppp[1] packetDropInterfaceDown:sum(packetBytes) 0
scalar multi.srv1.ppp[1] packetDropNoCarrier:count 0
scalar multi.srv1.ppp[1] packetDropNoCarrier:sum(packetBytes) 0
scalar multi.srv1.ipv4.ip packetDropAddressResolutionFailed:count 0
scalar multi.srv1.ipv4.ip packetDropAddressResolutionFailed:sum(packetBytes) 0
scalar multi.srv1.ipv4.ip packetDropHopLimitReached:count 0
scalar multi.srv1.ipv4.ip packetDropHopLimitReached:sum(packetBytes) 0
scalar multi.srv1.ipv4.ip packetDropForwardingDisabled:count 0
scalar multi.srv1.ipv4.ip packetDropForwardingDisabled:sum(packetBytes) 0
scalar multi.srv1.ipv4.ip packetDropLifetimeExpired:count 0
scalar multi.srv1.ipv4.ip packetDropLifetimeExpired:sum(packetBytes) 0
scalar multi.srv1.ipv4.ip packetDropNoInterfaceFound:count 0
scalar multi.srv1.ipv4.ip packetDropNoInterfaceFound:sum(packetBytes) 0
scalar multi.srv1.ipv4.ip packetDropNoRouteFound:count 0
scalar multi.srv1.ipv4.ip packetDropNoRouteFound:sum(packetBytes) 0
scalar multi.srv1.ipv4.ip packetDropUndefined:count 0
scalar multi.srv1.ipv4.ip packetDropUndefined:sum(packetBytes) 0
scalar multi.srv1.ipv4.arp arpResolutionFailed:count 0
scalar multi.srv1.ipv4.arp arpResolutionCompleted:count 0
scalar multi.srv1.ipv4.arp arpResolutionInitiated:count 0
scalar multi.srv1.ipv4.arp arpReplySent:count 0
scalar multi.srv1.ipv4.arp arpReplySent:sum(packetBytes) 0
scalar multi.srv1.ipv4.arp arpRequestSent:count 0
scalar multi.srv1.ipv4.arp arpRequestSent:sum(packetBytes) 0
scalar multi.srv1.udp packetReceived:count 0
scalar multi.srv1.udp packetReceived:sum(packetBytes) 0
scalar multi.srv1.udp packetSent:count 0
scalar multi.srv1.udp packetSent:sum(packetBytes) 0
scalar multi.srv1.udp passedUpPk:count 0
scalar multi.srv1.udp droppedPkWrongPort:count 0
scalar multi.srv1.udp droppedPkBadChecksum:count 0
scalar multi.srv1.sctp "Bytes received on stream 0 of assoc 15" 0
scalar multi.srv1.sctp "Bytes received on stream 1 of assoc 15" 0
scalar multi.srv1.sctp "Bytes received on stream 2 of assoc 15" 0
scalar multi.srv1.sctp "Bytes received on stream 3 of assoc 15" 0
scalar multi.srv1.sctp "Bytes received on stream 4 of assoc 15" 0
scalar multi.srv1.sctp "Bytes received on stream 5 of assoc 15" 0
scalar multi.srv1.sctp "Bytes received on stream 6 of assoc 15" 0
scalar multi.srv1.sctp "Bytes received on stream 7 of assoc 15" 0
scalar multi.srv1.sctp "Bytes received on stream 8 of assoc 15" 0
scalar multi.srv1.sctp "Bytes received on stream 9 of assoc 15" 0
scalar multi.srv1.sctp "Bytes received on stream 10 of assoc 15" 0
scalar multi.srv1.sctp "Bytes received on stream 11 of assoc 15" 0
scalar multi.srv1.sctp "Bytes received on stream 12 of assoc 15" 0
scalar multi.srv1.sctp "Bytes received on stream 13 of assoc 15" 0
scalar multi.srv1.sctp "Bytes received on stream 14 of assoc 15" 0
scalar multi.srv1.sctp "Bytes received on stream 15 of assoc 15" 0
scalar multi.srv1.sctp "Bytes received on stream 16 of assoc 15" 0
scalar multi.srv1.sctp "Blocking TSNs Moved" 0
scalar multi.srv1.sctp "Association Lifetime" 1.3235304
scalar multi.srv1.sctp "Acked Bytes" 0
scalar multi.srv1.sctp "Throughput [bit/s]" 0
scalar multi.srv1.sctp "Transmitted Bytes" 0
scalar multi.srv1.sctp "Fast RTX" 0
scalar multi.srv1.sctp "Timer-Based RTX" 0
scalar multi.srv1.sctp "Duplicate Acks" 0
scalar multi.srv1.sctp "Packets Received" 31
scalar multi.srv1.sctp "Packets Dropped" 0
scalar multi.srv1.sctp "Sum of R Gap Ranges" 0
scalar multi.srv1.sctp "Sum of NR Gap Ranges" 0
scalar multi.srv1.sctp "Overfull SACKs" 0
scalar multi.srv1.sctp "Drops Because New TSN Greater Than Highest TSN" 0
scalar multi.srv1.sctp "Drops Because No Room In Buffer" 0
scalar multi.srv1.sctp "Chunks Reneged" 0
scalar multi.srv1.sctp sackPeriod 0.2
scalar multi.srv1.sctp "Number of AUTH chunks sent" 0
scalar multi.srv1.sctp "Number of AUTH chunks accepted" 0
scalar multi.srv1.sctp "Number of AUTH chunks rejected" 0
scalar multi.srv1.sctp "Number of StreamReset requests sent" 0
scalar multi.srv1.sctp "Number of StreamReset requests performed" 0
scalar multi.srv1.sctp "Number of PacketDrop Reports" 0
scalar multi.srv1.sctp "Average End to End Delay" 0.049454448
scalar multi.srv1.sctp RTXMethod 0
scalar multi.srv1.app[0] "bytes rcvd" 100000
scalar multi.srv1.app[0] throughput 629774.44603024
scalar multi.router1.lo[0].lo rcvdPkFromHl:count 0
scalar multi.router1.lo[0].lo rcvdPkFromHl:sum(packetBytes) 0
scalar multi.router1.lo[0].lo passedUpPk:count 0
scalar multi.router1.lo[0].lo passedUpPk:sum(packetBytes) 0
scalar multi.router1.lo[0] packetDropInterfaceDown:count 0
scalar multi.router1.lo[0] packetDropInterfaceDown:sum(packetBytes) 0
scalar multi.router1.lo[0] packetDropNoCarrier:count 0
scalar multi.router1.lo[0] packetDropNoCarrier:sum(packetBytes) 0
scalar multi.router1.ppp[0].queue queueLength:last 0
scalar multi.router1.ppp[0].queue queueLength:max 0
scalar multi.router1.ppp[0].queue queueLength:timeavg 0
scalar multi.router1.ppp[0].queue queueBitLength:last 0
scalar multi.router1.ppp[0].queue queueBitLength:max 0
scalar multi.router1.ppp[0].queue queueBitLength:timeavg 0
scalar multi.router1.ppp[0].queue outgoingPackets:count 17
scalar multi.router1.ppp[0].queue outgoingPacketLengths:sum 7200
scalar multi.router1.ppp[0].queue incomingPackets:count 17
scalar multi.router1.ppp[0].queue incomingPacketLengths:sum 7200
scalar multi.router1.ppp[0].queue droppedPacketsQueueOverflow:count 0
scalar multi.router1.ppp[0].queue droppedPacketLengthsQueueOverflow:sum 0
scalar multi.router1.ppp[0].ppp transmissionState:timeavg 1.6304e-08
scalar multi.router1.ppp[0].ppp rxPkOk:count 29
scalar multi.router1.ppp[0].ppp rxPkOk:sum(packetBytes) 102871
scalar multi.router1.ppp[0].ppp txPk:count 17
scalar multi.router1.ppp[0].ppp txPk:sum(packetBytes) 1019
scalar multi.router1.ppp[0].ppp rcvdPkFromHl:count 17
scalar multi.router1.ppp[0].ppp rcvdPkFromHl:sum(packetBytes) 900
scalar multi.router1.ppp[0].ppp passedUpPk:count 29
scalar multi.router1.ppp[0].ppp passedUpPk:sum(packetBytes) 102668
scalar multi.router1.ppp[0].ppp packetDropIncorrectlyReceived:count 0
scalar multi.router1.ppp[0].ppp packetDropIncorrectlyReceived:sum(packetBytes) 0
scalar multi.router1.ppp[0].ppp packetDropInterfaceDown:count 0
scalar multi.router1.ppp[0].ppp packetDropInterfaceDown:sum(packetBytes) 0
scalar multi.router1.ppp[0] packetDropInterfaceDown:count 0
scalar multi.router1.ppp[0] packetDropInterfaceDown:sum(packetBytes) 0
scalar multi.router1.ppp[0] packetDropNoCarrier:count 0
scalar multi.router1.ppp[0] packetDropNoCarrier:sum(packetBytes) 0
scalar multi.router1.ppp[1].queue queueLength:last 0
scalar multi.router1.ppp[1].queue queueLength:max 8
scalar multi.router1.ppp[1].queue queueLength:timeavg 0.005677446624
scalar multi.router1.ppp[1].queue queueBitLength:last 0
scalar multi.router1.ppp[1].queue queueBitLength:max 262144
scalar multi.router1.ppp[1].queue queueBitLength:timeavg 186.03857097523
scalar multi.router1.ppp[1].queue outgoingPackets:count 29
scalar multi.router1.ppp[1].queue outgoingPacketLengths:sum 821344
scalar multi.router1.ppp[1].queue incomingPackets:count 29
scalar multi.router1.ppp[1].queue incomingPacketLengths:sum 821344
scalar multi.router1.ppp[1].queue droppedPacketsQueueOverflow:count 0
scalar multi.router1.ppp[1].queue droppedPacketLengthsQueueOverflow:sum 0
scalar multi.router1.ppp[1].ppp transmissionState:timeavg 0.001645936
scalar multi.router1.ppp[1].ppp rxPkOk:count 17
scalar multi.router1.ppp[1].ppp rxPkOk:sum(packetBytes) 1019
scalar multi.router1.ppp[1].ppp txPk:count 29
scalar multi.router1.ppp[1].ppp txPk:sum(packetBytes) 102871
scalar multi.router1.ppp[1].ppp rcvdPkFromHl:count 29
scalar multi.router1.ppp[1].ppp rcvdPkFromHl:sum(packetBytes) 102668
scalar multi.router1.ppp[1].ppp passedUpPk:count 17
scalar multi.router1.ppp[1].ppp passedUpPk:sum(packetBytes) 900
scalar multi.router1.ppp[1].ppp packetDropIncorrectlyReceived:count 0
scalar multi.router1.ppp[1].ppp packetDropIncorrectlyReceived:sum(packetBytes) 0
scalar multi.router1.ppp[1].ppp packetDropInterfaceDown:count 0
scalar multi.router1.ppp[1].ppp packetDropInterfaceDown:sum(packetBytes) 0
scalar multi.router1.ppp[1] packetDropInterfaceDown:count 0
scalar multi.router1.ppp[1] packetDropInterfaceDown:sum(packetBytes) 0
scalar multi.router1.ppp[1] packetDropNoCarrier:count 0
scalar multi.router1.ppp[1] packetDropNoCarrier:sum(packetBytes) 0
scalar multi.router1.ipv4.ip packetDropAddressResolutionFailed:count 0
scalar multi.router1.ipv4.ip packetDropAddressResolutionFailed:sum(packetBytes) 0
scalar multi.router1.ipv4.ip packetDropHopLimitReached:count 0
scalar multi.router1.ipv4.ip packetDropHopLimitReached:sum(packetBytes) 0
scalar multi.router1.ipv4.ip packetDropForwardingDisabled:count 0
scalar multi.router1.ipv4.ip packetDropForwardingDisabled:sum(packetBytes) 0
scalar multi.router1.ipv4.ip packetDropLifetimeExpired:count 0
scalar multi.router1.ipv4.ip packetDropLifetimeExpired:sum(packetBytes) 0
scalar multi.router1.ipv4.ip packetDropNoInterfaceFound:count 0
scalar multi.router1.ipv4.ip packetDropNoInterfaceFound:sum(packetBytes) 0
scalar multi.router1.ipv4.ip packetDropNoRouteFound:count 0
scalar multi.router1.ipv4.ip packetDropNoRouteFound:sum(packetBytes) 0
scalar multi.router1.ipv4.ip packetDropUndefined:count 0
scalar multi.router1.ipv4.ip packetDropUndefined:sum(packetBytes) 0
scalar multi.router1.ipv4.arp arpResolutionFailed:count 0
scalar multi.router1.ipv4.arp arpResolutionCompleted:count 0
scalar multi.router1.ipv4.arp arpResolutionInitiated:count 0
scalar multi.router1.ipv4.arp arpReplySent:count 0
scalar multi.router1.ipv4.arp arpReplySent:sum(packetBytes) 0
scalar multi.router1.ipv4.arp arpRequestSent:count 0
scalar multi.router1.ipv4.arp arpRequestSent:sum(packetBytes) 0
scalar multi.router2.lo[0].lo rcvdPkFromHl:count 0
scalar multi.router2.lo[0].lo rcvdPkFromHl:sum(packetBytes) 0
scalar multi.router2.lo[0].lo passedUpPk:count 0
scalar multi.router2.lo[0].lo passedUpPk:sum(packetBytes) 0
scalar multi.router2.lo[0] packetDropInterfaceDown:count 0
scalar multi.router2.lo[0] packetDropInterfaceDown:sum(packetBytes) 0
scalar multi.router2.lo[0] packetDropNoCarrier:count 0
scalar multi.router2.lo[0] packetDropNoCarrier:sum(packetBytes) 0
scalar multi.router2.ppp[0].queue queueLength:last 0
scalar multi.router2.ppp[0].queue queueLength:max 0
scalar multi.router2.ppp[0].queue queueLength:timeavg 0
scalar multi.router2.ppp[0].queue queueBitLength:last 0
scalar multi.router2.ppp[0].queue queueBitLength:max 0
scalar multi.router2.ppp[0].queue queueBitLength:timeavg 0
scalar multi.router2.ppp[0].queue outgoingPackets:count 17
scalar multi.router2.ppp[0].queue outgoingPacketLengths:sum 7200
scalar multi.router2.ppp[0].queue incomingPackets:count 17
scalar multi.router2.ppp[0].queue incomingPacketLengths:sum 7200
scalar multi.router2.ppp[0].queue droppedPacketsQueueOverflow:count 0
scalar multi.router2.ppp[0].queue droppedPacketLengthsQueueOverflow:sum 0
scalar multi.router2.ppp[0].ppp transmissionState:timeavg 1.6304e-05
scalar multi.router2.ppp[0].ppp rxPkOk:count 29
scalar multi.router2.ppp[0].ppp rxPkOk:sum(packetBytes) 102871
scalar multi.router2.ppp[0].ppp txPk:count 17
scalar multi.router2.ppp[0].ppp txPk:sum(packetBytes) 1019
scalar multi.router2.ppp[0].ppp rcvdPkFromHl:count 17
scalar multi.router2.ppp[0].ppp rcvdPkFromHl:sum(packetBytes) 900
scalar multi.router2.ppp[0].ppp passedUpPk:count 29
scalar multi.router2.ppp[0].ppp passedUpPk:sum(packetBytes) 102668
scalar multi.router2.ppp[0].ppp packetDropIncorrectlyReceived:count 0
scalar multi.router2.ppp[0].ppp packetDropIncorrectlyReceived:sum(packetBytes) 0
scalar multi.router2.ppp[0].ppp packetDropInterfaceDown:count 0
scalar multi.router2.ppp[0].ppp packetDropInterfaceDown:sum(packetBytes) 0
scalar multi.router2.ppp[0] packetDropInterfaceDown:count 0
scalar multi.router2.ppp[0] packetDropInterfaceDown:sum(packetBytes) 0
scalar multi.router2.ppp[0] packetDropNoCarrier:count 0
scalar multi.router2.ppp[0] packetDropNoCarrier:sum(packetBytes) 0
scalar multi.router2.ppp[1].queue queueLength:last 0
scalar multi.router2.ppp[1].queue queueLength:max 0
scalar multi.router2.ppp[1].queue queueLength:timeavg 0
scalar multi.router2.ppp[1].queue queueBitLength:last 0
scalar multi.router2.ppp[1].queue queueBitLength:max 0
scalar multi.router2.ppp[1].queue queueBitLength:timeavg 0
scalar multi.router2.ppp[1].queue outgoingPackets:count 29
scalar multi.router2.ppp[1].queue outgoingPacketLengths:sum 821344
scalar multi.router2.ppp[1].queue incomingPackets:count 29
scalar multi.router2.ppp[1].queue incomingPacketLengths:sum 821344
scalar multi.router2.ppp[1].queue droppedPacketsQueueOverflow:count 0
scalar multi.router2.ppp[1].queue droppedPacketLengthsQueueOverflow:sum 0
scalar multi.router2.ppp[1].ppp transmissionState:timeavg 1.645936e-06
scalar multi.router2.ppp[1].ppp rxPkOk:count 17
scalar multi.router2.ppp[1].ppp rxPkOk:sum(packetBytes) 1019
scalar multi.router2.ppp[1].ppp txPk:count 29
scalar multi.router2.ppp[1].ppp txPk:sum(packetBytes) 102871
scalar multi.router2.ppp[1].ppp rcvdPkFromHl:count 29
scalar multi.router2.ppp[1].ppp rcvdPkFromHl:sum(packetBytes) 102668
scalar multi.router2.ppp[1].ppp passedUpPk:count 17
scalar multi.router2.ppp[1].ppp passedUpPk:sum(packetBytes) 900
scalar multi.router2.ppp[1].ppp packetDropIncorrectlyReceived:count 0
scalar multi.router2.ppp[1].ppp packetDropIncorrectlyReceived:sum(packetBytes) 0
scalar multi.router2.ppp[1].ppp packetDropInterfaceDown:count 0
scalar multi.router2.ppp[1].ppp packetDropInterfaceDown:sum(packetBytes) 0
scalar multi.router2.ppp[1] packetDropInterfaceDown:count 0
scalar multi.router2.ppp[1] packetDropInterfaceDown:sum(packetBytes) 0
scalar multi.router2.ppp[1] packetDropNoCarrier:count 0
scalar multi.router2.ppp[1] packetDropNoCarrier:sum(packetBytes) 0
scalar multi.router2.ipv4.ip packetDropAddressResolutionFailed:count 0
scalar multi.router2.ipv4.ip packetDropAddressResolutionFailed:sum(packetBytes) 0
scalar multi.router2.ipv4.ip packetDropHopLimitReached:count 0
scalar multi.router2.ipv4.ip packetDropHopLimitReached:sum(packetBytes) 0
scalar multi.router2.ipv4.ip packetDropForwardingDisabled:count 0
scalar multi.router2.ipv4.ip packetDropForwardingDisabled:sum(packetBytes) 0
scalar multi.router2.ipv4.ip packetDropLifetimeExpired:count 0
scalar multi.router2.ipv4.ip packetDropLifetimeExpired:sum(packetBytes) 0
scalar multi.router2.ipv4.ip packetDropNoInterfaceFound:count 0
scalar multi.router2.ipv4.ip packetDropNoInterfaceFound:sum(packetBytes) 0
scalar multi.router2.ipv4.ip packetDropNoRouteFound:count 0
scalar multi.router2.ipv4.ip packetDropNoRouteFound:sum(packetBytes) 0
scalar multi.router2.ipv4.ip packetDropUndefined:count 0
scalar multi.router2.ipv4.ip packetDropUndefined:sum(packetBytes) 0
scalar multi.router2.ipv4.arp arpResolutionFailed:count 0
scalar multi.router2.ipv4.arp arpResolutionCompleted:count 0
scalar multi.router2.ipv4.arp arpResolutionInitiated:count 0
scalar multi.router2.ipv4.arp arpReplySent:count 0
scalar multi.router2.ipv4.arp arpReplySent:sum(packetBytes) 0
scalar multi.router2.ipv4.arp arpRequestSent:count 0
scalar multi.router2.ipv4.arp arpRequestSent:sum(packetBytes) 0
scalar multi.router3.lo[0].lo rcvdPkFromHl:count 0
scalar multi.router3.lo[0].lo rcvdPkFromHl:sum(packetBytes) 0
scalar multi.router3.lo[0].lo passedUpPk:count 0
scalar multi.router3.lo[0].lo passedUpPk:sum(packetBytes) 0
scalar multi.router3.lo[0] packetDropInterfaceDown:count 0
scalar multi.router3.lo[0] packetDropInterfaceDown:sum(packetBytes) 0
scalar multi.router3.lo[0] packetDropNoCarrier:count 0
scalar multi.router3.lo[0] packetDropNoCarrier:sum(packetBytes) 0
scalar multi.router3.ppp[0].queue queueLength:last 0
scalar multi.router3.ppp[0].queue queueLength:max 0
scalar multi.router3.ppp[0].queue queueLength:timeavg 0
scalar multi.router3.ppp[0].queue queueBitLength:last 0
scalar multi.router3.ppp[0].queue queueBitLength:max 0
scalar multi.router3.ppp[0].queue queueBitLength:timeavg 0
scalar multi.router3.ppp[0].queue outgoingPackets:count 2
scalar multi.router3.ppp[0].queue outgoingPacketLengths:sum 768
scalar multi.router3.ppp[0].queue incomingPackets:count 2
scalar multi.router3.ppp[0].queue incomingPacketLengths:sum 768
scalar multi.router3.ppp[0].queue droppedPacketsQueueOverflow:count 0
scalar multi.router3.ppp[0].queue droppedPacketLengthsQueueOverflow:sum 0
scalar multi.router3.ppp[0].ppp transmissionState:timeavg 1.76e-09
scalar multi.router3.ppp[0].ppp rxPkOk:count 2
scalar multi.router3.ppp[0].ppp rxPkOk:sum(packetBytes) 110
scalar multi.router3.ppp[0].ppp txPk:count 2
scalar multi.router3.ppp[0].ppp txPk:sum(packetBytes) 110
scalar multi.router3.ppp[0].ppp rcvdPkFromHl:count 2
scalar multi.router3.ppp[0].ppp rcvdPkFromHl:sum(packetBytes) 96
scalar multi.router3.ppp[0].ppp passedUpPk:count 2
scalar multi.router3.ppp[0].ppp passedUpPk:sum(packetBytes) 96
scalar multi.router3.ppp[0].ppp packetDropIncorrectlyReceived:count 0
scalar multi.router3.ppp[0].ppp packetDropIncorrectlyReceived:sum(packetBytes) 0
scalar multi.router3.ppp[0].ppp packetDropInterfaceDown:count 0
scalar multi.router3.ppp[0].ppp packetDropInterfaceDown:sum(packetBytes) 0
scalar multi.router3.ppp[0] packetDropInterfaceDown:count 0
scalar multi.router3.ppp[0] packetDropInterfaceDown:sum(packetBytes) 0
scalar multi.router3.ppp[0] packetDropNoCarrier:count 0
scalar multi.router3.ppp[0] packetDropNoCarrier:sum(packetBytes) 0
scalar multi.router3.ppp[1].queue queueLength:last 0
scalar multi.router3.ppp[1].queue queueLength:max 1
scalar multi.router3.ppp[1].queue queueLength:timeavg 6.87616e-07
scalar multi.router3.ppp[1].queue queueBitLength:last 0
scalar multi.router3.ppp[1].queue queueBitLength:max 384
scalar multi.router3.ppp[1].queue queueBitLength:timeavg 0.000264044544
scalar multi.router3.ppp[1].queue outgoingPackets:count 2
scalar multi.router3.ppp[1].queue outgoingPacketLengths:sum 768
scalar multi.router3.ppp[1].queue incomingPackets:count 2
scalar multi.router3.ppp[1].queue incomingPacketLengths:sum 768
scalar multi.router3.ppp[1].queue droppedPacketsQueueOverflow:count 0
scalar multi.router3.ppp[1].queue droppedPacketLengthsQueueOverflow:sum 0
scalar multi.router3.ppp[1].ppp transmissionState:timeavg 1.76e-06
scalar multi.router3.ppp[1].ppp rxPkOk:count 2
scalar multi.router3.ppp[1].ppp rxPkOk:sum(packetBytes) 110
scalar multi.router3.ppp[1].ppp txPk:count 2
scalar multi.router3.ppp[1].ppp txPk:sum(packetBytes) 110
scalar multi.router3.ppp[1].ppp rcvdPkFromHl:count 2
scalar multi.router3.ppp[1].ppp rcvdPkFromHl:sum(packetBytes) 96
scalar multi.router3.ppp[1].ppp passedUpPk:count 2
scalar multi.router3.ppp[1].ppp passedUpPk:sum(packetBytes) 96
scalar multi.router3.ppp[1].ppp packetDropIncorrectlyReceived:count 0
scalar multi.router3.ppp[1].ppp packetDropIncorrectlyReceived:sum(packetBytes) 0
scalar multi.router3.ppp[1].ppp packetDropInterfaceDown:count 0
scalar multi.router3.ppp[1].ppp packetDropInterfaceDown:sum(packetBytes) 0
scalar multi.router3.ppp[1] packetDropInterfaceDown:count 0
scalar multi.router3.ppp[1] packetDropInterfaceDown:sum(packetBytes) 0
scalar multi.router3.ppp[1] packetDropNoCarrier:count 0
scalar multi.router3.ppp[1] packetDropNoCarrier:sum(packetBytes) 0
scalar multi.router3.ipv4.ip packetDropAddressResolutionFailed:count 0
scalar multi.router3.ipv4.ip packetDropAddressResolutionFailed:sum(packetBytes) 0
scalar multi.router3.ipv4.ip packetDropHopLimitReached:count 0
scalar multi.router3.ipv4.ip packetDropHopLimitReached:sum(packetBytes) 0
scalar multi.router3.ipv4.ip packetDropForwardingDisabled:count 0
scalar multi.router3.ipv4.ip packetDropForwardingDisabled:sum(packetBytes) 0
scalar multi.router3.ipv4.ip packetDropLifetimeExpired:count 0
scalar multi.router3.ipv4.ip packetDropLifetimeExpired:sum(packetBytes) 0
scalar multi.router3.ipv4.ip packetDropNoInterfaceFound:count 0
scalar multi.router3.ipv4.ip packetDropNoInterfaceFound:sum(packetBytes) 0
scalar multi.router3.ipv4.ip packetDropNoRouteFound:count 0
scalar multi.router3.ipv4.ip packetDropNoRouteFound:sum(packetBytes) 0
scalar multi.router3.ipv4.ip packetDropUndefined:count 0
scalar multi.router3.ipv4.ip packetDropUndefined:sum(packetBytes) 0
scalar multi.router3.ipv4.arp arpResolutionFailed:count 0
scalar multi.router3.ipv4.arp arpResolutionCompleted:count 0
scalar multi.router3.ipv4.arp arpResolutionInitiated:count 0
scalar multi.router3.ipv4.arp arpReplySent:count 0
scalar multi.router3.ipv4.arp arpReplySent:sum(packetBytes) 0
scalar multi.router3.ipv4.arp arpRequestSent:count 0
scalar multi.router3.ipv4.arp arpRequestSent:sum(packetBytes) 0
scalar multi.router4.lo[0].lo rcvdPkFromHl:count 0
scalar multi.router4.lo[0].lo rcvdPkFromHl:sum(packetBytes) 0
scalar multi.router4.lo[0].lo passedUpPk:count 0
scalar multi.router4.lo[0].lo passedUpPk:sum(packetBytes) 0
scalar multi.router4.lo[0] packetDropInterfaceDown:count 0
scalar multi.router4.lo[0] packetDropInterfaceDown:sum(packetBytes) 0
scalar multi.router4.lo[0] packetDropNoCarrier:count 0
scalar multi.router4.lo[0] packetDropNoCarrier:sum(packetBytes) 0
scalar multi.router4.ppp[0].queue queueLength:last 0
scalar multi.router4.ppp[0].queue queueLength:max 0
scalar multi.router4.ppp[0].queue queueLength:timeavg 0
scalar multi.router4.ppp[0].queue queueBitLength:last 0
scalar multi.router4.ppp[0].queue queueBitLength:max 0
scalar multi.router4.ppp[0].queue queueBitLength:timeavg 0
scalar multi.router4.ppp[0].queue outgoingPackets:count 2
scalar multi.router4.ppp[0].queue outgoingPacketLengths:sum 768
scalar multi.router4.ppp[0].queue incomingPackets:count 2
scalar multi.router4.ppp[0].queue incomingPacketLengths:sum 768
scalar multi.router4.ppp[0].queue droppedPacketsQueueOverflow:count 0
scalar multi.router4.ppp[0].queue droppedPacketLengthsQueueOverflow:sum 0
scalar multi.router4.ppp[0].ppp transmissionState:timeavg 1.76e-06
scalar multi.router4.ppp[0].ppp rxPkOk:count 2
scalar multi.router4.ppp[0].ppp rxPkOk:sum(packetBytes) 110
scalar multi.router4.ppp[0].ppp txPk:count 2
scalar multi.router4.ppp[0].ppp txPk:sum(packetBytes) 110
scalar multi.router4.ppp[0].ppp rcvdPkFromHl:count 2
scalar multi.router4.ppp[0].ppp rcvdPkFromHl:sum(packetBytes) 96
scalar multi.router4.ppp[0].ppp passedUpPk:count 2
scalar multi.router4.ppp[0].ppp passedUpPk:sum(packetBytes) 96
scalar multi.router4.ppp[0].ppp packetDropIncorrectlyReceived:count 0
scalar multi.router4.ppp[0].ppp packetDropIncorrectlyReceived:sum(packetBytes) 0
scalar multi.router4.ppp[0].ppp packetDropInterfaceDown:count 0
scalar multi.router4.ppp[0].ppp packetDropInterfaceDown:sum(packetBytes) 0
scalar multi.router4.ppp[0] packetDropInterfaceDown:count 0
scalar multi.router4.ppp[0] packetDropInterfaceDown:sum(packetBytes) 0
scalar multi.router4.ppp[0] packetDropNoCarrier:count 0
scalar multi.router4.ppp[0] packetDropNoCarrier:sum(packetBytes) 0
scalar multi.router4.ppp[1].queue queueLength:last 0
scalar multi.router4.ppp[1].queue queueLength:max 0
scalar multi.router4.ppp[1].queue queueLength:timeavg 0
scalar multi.router4.ppp[1].queue queueBitLength:last 0
scalar multi.router4.ppp[1].queue queueBitLength:max 0
scalar multi.router4.ppp[1].queue queueBitLength:timeavg 0
scalar multi.router4.ppp[1].queue outgoingPackets:count 2
scalar multi.router4.ppp[1].queue outgoingPacketLengths:sum 768
scalar multi.router4.ppp[1].queue incomingPackets:count 2
scalar multi.router4.ppp[1].queue incomingPacketLengths:sum 768
scalar multi.router4.ppp[1].queue droppedPacketsQueueOverflow:count 0
scalar multi.router4.ppp[1].queue droppedPacketLengthsQueueOverflow:sum 0
scalar multi.router4.ppp[1].ppp transmissionState:timeavg 1.76e-09
scalar multi.router4.ppp[1].ppp rxPkOk:count 2
scalar multi.router4.ppp[1].ppp rxPkOk:sum(packetBytes) 110
scalar multi.router4.ppp[1].ppp txPk:count 2
scalar multi.router4.ppp[1].ppp txPk:sum(packetBytes) 110
scalar multi.router4.ppp[1].ppp rcvdPkFromHl:count 2
scalar multi.router4.ppp[1].ppp rcvdPkFromHl:sum(packetBytes) 96
scalar multi.router4.ppp[1].ppp passedUpPk:count 2
scalar multi.router4.ppp[1].ppp passedUpPk:sum(packetBytes) 96
scalar multi.router4.ppp[1].ppp packetDropIncorrectlyReceived:count 0
scalar multi.router4.ppp[1].ppp packetDropIncorrectlyReceived:sum(packetBytes) 0
scalar multi.router4.ppp[1].ppp packetDropInterfaceDown:count 0
scalar multi.router4.ppp[1].ppp packetDropInterfaceDown:sum(packetBytes) 0
scalar multi.router4.ppp[1] packetDropInterfaceDown:count 0
scalar multi.router4.ppp[1] packetDropInterfaceDown:sum(packetBytes) 0
scalar multi.router4.ppp[1] packetDropNoCarrier:count 0
scalar multi.router4.ppp[1] packetDropNoCarrier:sum(packetBytes) 0
scalar multi.router4.ipv4.ip packetDropAddressResolutionFailed:count 0
scalar multi.router4.ipv4.ip packetDropAddressResolutionFailed:sum(packetBytes) 0
scalar multi.router4.ipv4.ip packetDropHopLimitReached:count 0
scalar multi.router4.ipv4.ip packetDropHopLimitReached:sum(packetBytes) 0
scalar multi.router4.ipv4.ip packetDropForwardingDisabled:count 0
scalar multi.router4.ipv4.ip packetDropForwardingDisabled:sum(packetBytes) 0
scalar multi.router4.ipv4.ip packetDropLifetimeExpired:count 0
scalar multi.router4.ipv4.ip packetDropLifetimeExpired:sum(packetBytes) 0
scalar multi.router4.ipv4.ip packetDropNoInterfaceFound:count 0
scalar multi.router4.ipv4.ip packetDropNoInterfaceFound:sum(packetBytes) 0
scalar multi.router4.ipv4.ip packetDropNoRouteFound:count 0
scalar multi.router4.ipv4.ip packetDropNoRouteFound:sum(packetBytes) 0
scalar multi.router4.ipv4.ip packetDropUndefined:count 0
scalar multi.router4.ipv4.ip packetDropUndefined:sum(packetBytes) 0
scalar multi.router4.ipv4.arp arpResolutionFailed:count 0
scalar multi.router4.ipv4.arp arpResolutionCompleted:count 0
scalar multi.router4.ipv4.arp arpResolutionInitiated:count 0
scalar multi.router4.ipv4.arp arpReplySent:count 0
scalar multi.router4.ipv4.arp arpReplySent:sum(packetBytes) 0
scalar multi.router4.ipv4.arp arpRequestSent:count 0
scalar multi.router4.ipv4.arp arpRequestSent:sum(packetBytes) 0
scalar multi.cli1.ppp[0].queue queueingTime:histogram:count 29
scalar multi.cli1.ppp[0].queue queueingTime:histogram:sumweights 29
scalar multi.cli1.ppp[0].queue queueingTime:histogram:mean 2.4900965517241e-05
scalar multi.cli1.ppp[0].queue queueingTime:histogram:stddev 2.7258848307192e-05
scalar multi.cli1.ppp[0].queue queueingTime:histogram:min 0
scalar multi.cli1.ppp[0].queue queueingTime:histogram:max 6.5648e-05
scalar multi.cli1.ppp[0].queue queueingTime:histogram:numbins 83
scalar multi.cli1.ppp[0].queue queueingTime:histogram:rangemin 0
scalar multi.cli1.ppp[0].queue queueingTime:histogram:rangemax 8.3e-05
scalar multi.cli1.ppp[0].queue queueingTime:histogram:underflows 0
scalar multi.cli1.ppp[0].queue queueingTime:histogram:overflows 0
scalar multi.cli1.ppp[0].queue outgoingPacketLengths:histogram:count 29
scalar multi.cli1.ppp[0].queue outgoingPacketLengths:histogram:sumweights 29
scalar multi.cli1.ppp[0].queue outgoingPacketLengths:histogram:mean 28322.206896552
scalar multi.cli1.ppp[0].queue outgoingPacketLengths:histogram:stddev 11311.636061341
scalar multi.cli1.ppp[0].queue outgoingPacketLengths:histogram:min 288
scalar multi.cli1.ppp[0].queue outgoingPacketLengths:histogram:max 32768
scalar multi.cli1.ppp[0].queue outgoingPacketLengths:histogram:numbins 82
scalar multi.cli1.ppp[0].queue outgoingPacketLengths:histogram:rangemin 0
scalar multi.cli1.ppp[0].queue outgoingPacketLengths:histogram:rangemax 41000
scalar multi.cli1.ppp[0].queue outgoingPacketLengths:histogram:underflows 0
scalar multi.cli1.ppp[0].queue outgoingPacketLengths:histogram:overflows 0
scalar multi.cli1.ppp[0].queue flowQueueingTime:histogram:count 0
scalar multi.cli1.ppp[0].queue flowQueueingTime:histogram:sumweights 0
scalar multi.cli1.ppp[0].queue flowQueueingTime:histogram:mean -nan
scalar multi.cli1.ppp[0].queue flowQueueingTime:histogram:stddev nan
scalar multi.cli1.ppp[0].queue flowQueueingTime:histogram:min nan
scalar multi.cli1.ppp[0].queue flowQueueingTime:histogram:max nan
scalar multi.cli1.ppp[0].queue flowQueueingTime:histogram:numbins 1
scalar multi.cli1.ppp[0].queue flowQueueingTime:histogram:rangemin 0
scalar multi.cli1.ppp[0].queue flowQueueingTime:histogram:rangemax 1
scalar multi.cli1.ppp[0].queue flowQueueingTime:histogram:underflows 0
scalar multi.cli1.ppp[0].queue flowQueueingTime:histogram:overflows 0
scalar multi.cli1.ppp[0].queue incomingPacketLengths:histogram:count 29
scalar multi.cli1.ppp[0].queue incomingPacketLengths:histogram:sumweights 29
scalar multi.cli1.ppp[0].queue incomingPacketLengths:histogram:mean 28322.206896552
scalar multi.cli1.ppp[0].queue incomingPacketLengths:histogram:stddev 11311.636061341
scalar multi.cli1.ppp[0].queue incomingPacketLengths:histogram:min 288
scalar multi.cli1.ppp[0].queue incomingPacketLengths:histogram:max 32768
scalar multi.cli1.ppp[0].queue incomingPacketLengths:histogram:numbins 82
scalar multi.cli1.ppp[0].queue incomingPacketLengths:histogram:rangemin 0
scalar multi.cli1.ppp[0].queue incomingPacketLengths:histogram:rangemax 41000
scalar multi.cli1.ppp[0].queue incomingPacketLengths:histogram:underflows 0
scalar multi.cli1.ppp[0].queue incomingPacketLengths:histogram:overflows 0
scalar multi.cli1.ppp[1].queue queueingTime:histogram:count 2
scalar multi.cli1.ppp[1].queue queueingTime:histogram:sumweights 2
scalar multi.cli1.ppp[1].queue queueingTime:histogram:mean 0
scalar multi.cli1.ppp[1].queue queueingTime:histogram:stddev 0
scalar multi.cli1.ppp[1].queue queueingTime:histogram:min 0
scalar multi.cli1.ppp[1].queue queueingTime:histogram:max 0
scalar multi.cli1.ppp[1].queue queueingTime:histogram:numbins 50
scalar multi.cli1.ppp[1].queue queueingTime:histogram:rangemin -0.5
scalar multi.cli1.ppp[1].queue queueingTime:histogram:rangemax 0.5
scalar multi.cli1.ppp[1].queue queueingTime:histogram:underflows 0
scalar multi.cli1.ppp[1].queue queueingTime:histogram:overflows 0
scalar multi.cli1.ppp[1].queue outgoingPacketLengths:histogram:count 2
scalar multi.cli1.ppp[1].queue outgoingPacketLengths:histogram:sumweights 2
scalar multi.cli1.ppp[1].queue outgoingPacketLengths:histogram:mean 384
scalar multi.cli1.ppp[1].queue outgoingPacketLengths:histogram:stddev 0
scalar multi.cli1.ppp[1].queue outgoingPacketLengths:histogram:min 384
scalar multi.cli1.ppp[1].queue outgoingPacketLengths:histogram:max 384
scalar multi.cli1.ppp[1].queue outgoingPacketLengths:histogram:numbins 2
scalar multi.cli1.ppp[1].queue outgoingPacketLengths:histogram:rangemin 383
scalar multi.cli1.ppp[1].queue outgoingPacketLengths:histogram:rangemax 385
scalar multi.cli1.ppp[1].queue outgoingPacketLengths:histogram:underflows 0
scalar multi.cli1.ppp[1].queue outgoingPacketLengths:histogram:overflows 0
scalar multi.cli1.ppp[1].queue flowQueueingTime:histogram:count 0
scalar multi.cli1.ppp[1].queue flowQueueingTime:histogram:sumweights 0
scalar multi.cli1.ppp[1].queue flowQueueingTime:histogram:mean -nan
scalar multi.cli1.ppp[1].queue flowQueueingTime:histogram:stddev nan
scalar multi.cli1.ppp[1].queue flowQueueingTime:histogram:min nan
scalar multi.cli1.ppp[1].queue flowQueueingTime:histogram:max nan
scalar multi.cli1.ppp[1].queue flowQueueingTime:histogram:numbins 1
scalar multi.cli1.ppp[1].queue flowQueueingTime:histogram:rangemin 0
scalar multi.cli1.ppp[1].queue flowQueueingTime:histogram:rangemax 1
scalar multi.cli1.ppp[1].queue flowQueueingTime:histogram:underflows 0
scalar multi.cli1.ppp[1].queue flowQueueingTime:histogram:overflows 0
scalar multi.cli1.ppp[1].queue incomingPacketLengths:histogram:count 2
scalar multi.cli1.ppp[1].queue incomingPacketLengths:histogram:sumweights 2
scalar multi.cli1.ppp[1].queue incomingPacketLengths:histogram:mean 384
scalar multi.cli1.ppp[1].queue incomingPacketLengths:histogram:stddev 0
scalar multi.cli1.ppp[1].queue incomingPacketLengths:histogram:min 384
scalar multi.cli1.ppp[1].queue incomingPacketLengths:histogram:max 384
scalar multi.cli1.ppp[1].queue incomingPacketLengths:histogram:numbins 2
scalar multi.cli1.ppp[1].queue incomingPacketLengths:histogram:rangemin 383
scalar multi.cli1.ppp[1].queue incomingPacketLengths:histogram:rangemax 385
scalar multi.cli1.ppp[1].queue incomingPacketLengths:histogram:underflows 0
scalar multi.cli1.ppp[1].queue incomingPacketLengths:histogram:overflows 0
scalar multi.srv1.ppp[0].queue queueingTime:histogram:count 17
scalar multi.srv1.ppp[0].queue queueingTime:histogram:sumweights 17
scalar multi.srv1.ppp[0].queue queueingTime:histogram:mean 0
scalar multi.srv1.ppp[0].queue queueingTime:histogram:stddev 0
scalar multi.srv1.ppp[0].queue queueingTime:histogram:min 0
scalar multi.srv1.ppp[0].queue queueingTime:histogram:max 0
scalar multi.srv1.ppp[0].queue queueingTime:histogram:numbins 50
scalar multi.srv1.ppp[0].queue queueingTime:histogram:rangemin -0.5
scalar multi.srv1.ppp[0].queue queueingTime:histogram:rangemax 0.5
scalar multi.srv1.ppp[0].queue queueingTime:histogram:underflows 0
scalar multi.srv1.ppp[0].queue queueingTime:histogram:overflows 0
scalar multi.srv1.ppp[0].queue outgoingPacketLengths:histogram:count 17
scalar multi.srv1.ppp[0].queue outgoingPacketLengths:histogram:sumweights 17
scalar multi.srv1.ppp[0].queue outgoingPacketLengths:histogram:mean 423.52941176471
scalar multi.srv1.ppp[0].queue outgoingPacketLengths:histogram:stddev 214.82030794569
scalar multi.srv1.ppp[0].queue outgoingPacketLengths:histogram:min 288
scalar multi.srv1.ppp[0].queue outgoingPacketLengths:histogram:max 1248
scalar multi.srv1.ppp[0].queue outgoingPacketLengths:histogram:numbins 73
scalar multi.srv1.ppp[0].queue outgoingPacketLengths:histogram:rangemin 40
scalar multi.srv1.ppp[0].queue outgoingPacketLengths:histogram:rangemax 1500
scalar multi.srv1.ppp[0].queue outgoingPacketLengths:histogram:underflows 0
scalar multi.srv1.ppp[0].queue outgoingPacketLengths:histogram:overflows 0
scalar multi.srv1.ppp[0].queue flowQueueingTime:histogram:count 0
scalar multi.srv1.ppp[0].queue flowQueueingTime:histogram:sumweights 0
scalar multi.srv1.ppp[0].queue flowQueueingTime:histogram:mean -nan
scalar multi.srv1.ppp[0].queue flowQueueingTime:histogram:stddev nan
scalar multi.srv1.ppp[0].queue flowQueueingTime:histogram:min nan
scalar multi.srv1.ppp[0].queue flowQueueingTime:histogram:max nan
scalar multi.srv1.ppp[0].queue flowQueueingTime:histogram:numbins 1
scalar multi.srv1.ppp[0].queue flowQueueingTime:histogram:rangemin 0
scalar multi.srv1.ppp[0].queue flowQueueingTime:histogram:rangemax 1
scalar multi.srv1.ppp[0].queue flowQueueingTime:histogram:underflows 0
scalar multi.srv1.ppp[0].queue flowQueueingTime:histogram:overflows 0
scalar multi.srv1.ppp[0].queue incomingPacketLengths:histogram:count 17
scalar multi.srv1.ppp[0].queue incomingPacketLengths:histogram:sumweights 17
scalar multi.srv1.ppp[0].queue incomingPacketLengths:histogram:mean 423.52941176471
scalar multi.srv1.ppp[0].queue incomingPacketLengths:histogram:stddev 214.82030794569
scalar multi.srv1.ppp[0].queue incomingPacketLengths:histogram:min 288
scalar multi.srv1.ppp[0].queue incomingPacketLengths:histogram:max 1248
scalar multi.srv1.ppp[0].queue incomingPacketLengths:histogram:numbins 73
scalar multi.srv1.ppp[0].queue incomingPacketLengths:histogram:rangemin 40
scalar multi.srv1.ppp[0].queue incomingPacketLengths:histogram:rangemax 1500
scalar multi.srv1.ppp[0].queue incomingPacketLengths:histogram:underflows 0
scalar multi.srv1.ppp[0].queue incomingPacketLengths:histogram:overflows 0
scalar multi.srv1.ppp[1].queue queueingTime:histogram:count 2
scalar multi.srv1.ppp[1].queue queueingTime:histogram:sumweights 2
scalar multi.srv1.ppp[1].queue queueingTime:histogram:mean 0
scalar multi.srv1.ppp[1].queue queueingTime:histogram:stddev 0
scalar multi.srv1.ppp[1].queue queueingTime:histogram:min 0
scalar multi.srv1.ppp[1].queue queueingTime:histogram:max 0
scalar multi.srv1.ppp[1].queue queueingTime:histogram:numbins 50
scalar multi.srv1.ppp[1].queue queueingTime:histogram:rangemin -0.5
scalar multi.srv1.ppp[1].queue queueingTime:histogram:rangemax 0.5
scalar multi.srv1.ppp[1].queue queueingTime:histogram:underflows 0
scalar multi.srv1.ppp[1].queue queueingTime:histogram:overflows 0
scalar multi.srv1.ppp[1].queue outgoingPacketLengths:histogram:count 2
scalar multi.srv1.ppp[1].queue outgoingPacketLengths:histogram:sumweights 2
scalar multi.srv1.ppp[1].queue outgoingPacketLengths:histogram:mean 384
scalar multi.srv1.ppp[1].queue outgoingPacketLengths:histogram:stddev 0
scalar multi.srv1.ppp[1].queue outgoingPacketLengths:histogram:min 384
scalar multi.srv1.ppp[1].queue outgoingPacketLengths:histogram:max 384
scalar multi.srv1.ppp[1].queue outgoingPacketLengths:histogram:numbins 2
scalar multi.srv1.ppp[1].queue outgoingPacketLengths:histogram:rangemin 383
scalar multi.srv1.ppp[1].queue outgoingPacketLengths:histogram:rangemax 385
scalar multi.srv1.ppp[1].queue outgoingPacketLengths:histogram:underflows 0
scalar multi.srv1.ppp[1].queue outgoingPacketLengths:histogram:overflows 0
scalar multi.srv1.ppp[1].queue flowQueueingTime:histogram:count 0
scalar multi.srv1.ppp[1].queue flowQueueingTime:histogram:sumweights 0
scalar multi.srv1.ppp[1].queue flowQueueingTime:histogram:mean -nan
scalar multi.srv1.ppp[1].queue flowQueueingTime:histogram:stddev nan
scalar multi.srv1.ppp[1].queue flowQueueingTime:histogram:min nan
scalar multi.srv1.ppp[1].queue flowQueueingTime:histogram:max nan
scalar multi.srv1.ppp[1].queue flowQueueingTime:histogram:numbins 1
scalar multi.srv1.ppp[1].queue flowQueueingTime:histogram:rangemin 0
scalar multi.srv1.ppp[1].queue flowQueueingTime:histogram:rangemax 1
scalar multi.srv1.ppp[1].queue flowQueueingTime:histogram:underflows 0
scalar multi.srv1.ppp[1].queue flowQueueingTime:histogram:overflows 0
scalar multi.srv1.ppp[1].queue incomingPacketLengths:histogram:count 2
scalar multi.srv1.ppp[1].queue incomingPacketLengths:histogram:sumweights 2
scalar multi.srv1.ppp[1].queue incomingPacketLengths:histogram:mean 384
scalar multi.srv1.ppp[1].queue incomingPacketLengths:histogram:stddev 0
scalar multi.srv1.ppp[1].queue incomingPacketLengths:histogram:min 384
scalar multi.srv1.ppp[1].queue incomingPacketLengths:histogram:max 384
scalar multi.srv1.ppp[1].queue incomingPacketLengths:histogram:numbins 2
scalar multi.srv1.ppp[1].queue incomingPacketLengths:histogram:rangemin 383
scalar multi.srv1.ppp[1].queue incomingPacketLengths:histogram:rangemax 385
scalar multi.srv1.ppp[1].queue incomingPacketLengths:histogram:underflows 0
scalar multi.srv1.ppp[1].queue incomingPacketLengths:histogram:overflows 0
scalar multi.router1.ppp[0].queue queueingTime:histogram:count 17
scalar multi.router1.ppp[0].queue queueingTime:histogram:sumweights 17
scalar multi.router1.ppp[0].queue queueingTime:histogram:mean 0
scalar multi.router1.ppp[0].queue queueingTime:histogram:stddev 0
scalar multi.router1.ppp[0].queue queueingTime:histogram:min 0
scalar multi.router1.ppp[0].queue queueingTime:histogram:max 0
scalar multi.router1.ppp[0].queue queueingTime:histogram:numbins 50
scalar multi.router1.ppp[0].queue queueingTime:histogram:rangemin -0.5
scalar multi.router1.ppp[0].queue queueingTime:histogram:rangemax 0.5
scalar multi.router1.ppp[0].queue queueingTime:histogram:underflows 0
scalar multi.router1.ppp[0].queue queueingTime:histogram:overflows 0
scalar multi.router1.ppp[0].queue outgoingPacketLengths:histogram:count 17
scalar multi.router1.ppp[0].queue outgoingPacketLengths:histogram:sumweights 17
scalar multi.router1.ppp[0].queue outgoingPacketLengths:histogram:mean 423.52941176471
scalar multi.router1.ppp[0].queue outgoingPacketLengths:histogram:stddev 214.82030794569
scalar multi.router1.ppp[0].queue outgoingPacketLengths:histogram:min 288
scalar multi.router1.ppp[0].queue outgoingPacketLengths:histogram:max 1248
scalar multi.router1.ppp[0].queue outgoingPacketLengths:histogram:numbins 73
scalar multi.router1.ppp[0].queue outgoingPacketLengths:histogram:rangemin 40
scalar multi.router1.ppp[0].queue outgoingPacketLengths:histogram:rangemax 1500
scalar multi.router1.ppp[0].queue outgoingPacketLengths:histogram:underflows 0
scalar multi.router1.ppp[0].queue outgoingPacketLengths:histogram:overflows 0
scalar multi.router1.ppp[0].queue flowQueueingTime:histogram:count 0
scalar multi.router1.ppp[0].queue flowQueueingTime:histogram:sumweights 0
scalar multi.router1.ppp[0].queue flowQueueingTime:histogram:mean -nan
scalar multi.router1.ppp[0].queue flowQueueingTime:histogram:stddev nan
scalar multi.router1.ppp[0].queue flowQueueingTime:histogram:min nan
scalar multi.router1.ppp[0].queue flowQueueingTime:histogram:max nan
scalar multi.router1.ppp[0].queue flowQueueingTime:histogram:numbins 1
scalar multi.router1.ppp[0].queue flowQueueingTime:histogram:rangemin 0
scalar multi.router1.ppp[0].queue flowQueueingTime:histogram:rangemax 1
scalar multi.router1.ppp[0].queue flowQueueingTime:histogram:underflows 0
scalar multi.router1.ppp[0].queue flowQueueingTime:histogram:overflows 0
scalar multi.router1.ppp[0].queue incomingPacketLengths:histogram:count 17
scalar multi.router1.ppp[0].queue incomingPacketLengths:histogram:sumweights 17
scalar multi.router1.ppp[0].queue incomingPacketLengths:histogram:mean 423.52941176471
scalar multi.router1.ppp[0].queue incomingPacketLengths:histogram:stddev 214.82030794569
scalar multi.router1.ppp[0].queue incomingPacketLengths:histogram:min 288
scalar multi.router1.ppp[0].queue incomingPacketLengths:histogram:max 1248
scalar multi.router1.ppp[0].queue incomingPacketLengths:histogram:numbins 73
scalar multi.router1.ppp[0].queue incomingPacketLengths:histogram:rangemin 40
scalar multi.router1.ppp[0].queue incomingPacketLengths:histogram:rangemax 1500
scalar multi.router1.ppp[0].queue incomingPacketLengths:histogram:underflows 0
scalar multi.router1.ppp[0].queue incomingPacketLengths:histogram:overflows 0
scalar multi.router1.ppp[1].queue queueingTime:histogram:count 29
scalar multi.router1.ppp[1].queue queueingTime:histogram:sumweights 29
scalar multi.router1.ppp[1].queue queueingTime:histogram:mean 0.097887010758621
scalar multi.router1.ppp[1].queue queueingTime:histogram:stddev 0.082471424994717
scalar multi.router1.ppp[1].queue queueingTime:histogram:min 0
scalar multi.router1.ppp[1].queue queueingTime:histogram:max 0.242052648
scalar multi.router1.ppp[1].queue queueingTime:histogram:numbins 61
scalar multi.router1.ppp[1].queue queueingTime:histogram:rangemin 0
scalar multi.router1.ppp[1].queue queueingTime:histogram:rangemax 0.305
scalar multi.router1.ppp[1].queue queueingTime:histogram:underflows 0
scalar multi.router1.ppp[1].queue queueingTime:histogram:overflows 0
scalar multi.router1.ppp[1].queue outgoingPacketLengths:histogram:count 29
scalar multi.router1.ppp[1].queue outgoingPacketLengths:histogram:sumweights 29
scalar multi.router1.ppp[1].queue outgoingPacketLengths:histogram:mean 28322.206896552
scalar multi.router1.ppp[1].queue outgoingPacketLengths:histogram:stddev 11311.636061341
scalar multi.router1.ppp[1].queue outgoingPacketLengths:histogram:min 288
scalar multi.router1.ppp[1].queue outgoingPacketLengths:histogram:max 32768
scalar multi.router1.ppp[1].queue outgoingPacketLengths:histogram:numbins 82
scalar multi.router1.ppp[1].queue outgoingPacketLengths:histogram:rangemin 0
scalar multi.router1.ppp[1].queue outgoingPacketLengths:histogram:rangemax 41000
scalar multi.router1.ppp[1].queue outgoingPacketLengths:histogram:underflows 0
scalar multi.router1.ppp[1].queue outgoingPacketLengths:histogram:overflows 0
scalar multi.router1.ppp[1].queue flowQueueingTime:histogram:count 0
scalar multi.router1.ppp[1].queue flowQueueingTime:histogram:sumweights 0
scalar multi.router1.ppp[1].queue flowQueueingTime:histogram:mean -nan
scalar multi.router1.ppp[1].queue flowQueueingTime:histogram:stddev nan
scalar multi.router1.ppp[1].queue flowQueueingTime:histogram:min nan
scalar multi.router1.ppp[1].queue flowQueueingTime:histogram:max nan
scalar multi.router1.ppp[1].queue flowQueueingTime:histogram:numbins 1
scalar multi.router1.ppp[1].queue flowQueueingTime:histogram:rangemin 0
scalar multi.router1.ppp[1].queue flowQueueingTime:histogram:rangemax 1
scalar multi.router1.ppp[1].queue flowQueueingTime:histogram:underflows 0
scalar multi.router1.ppp[1].queue flowQueueingTime:histogram:overflows 0
scalar multi.router1.ppp[1].queue incomingPacketLengths:histogram:count 29
scalar multi.router1.ppp[1].queue incomingPacketLengths:histogram:sumweights 29
scalar multi.router1.ppp[1].queue incomingPacketLengths:histogram:mean 28322.206896552
scalar multi.router1.ppp[1].queue incomingPacketLengths:histogram:stddev 11311.636061341
scalar multi.router1.ppp[1].queue incomingPacketLengths:histogram:min 288
scalar multi.router1.ppp[1].queue incomingPacketLengths:histogram:max 32768
scalar multi.router1.ppp[1].queue incomingPacketLengths:histogram:numbins 82
scalar multi.router1.ppp[1].queue incomingPacketLengths:histogram:rangemin 0
scalar multi.router1.ppp[1].queue incomingPacketLengths:histogram:rangemax 41000
scalar multi.router1.ppp[1].queue incomingPacketLengths:histogram:underflows 0
scalar multi.router1.ppp[1].queue incomingPacketLengths:histogram:overflows 0
scalar multi.router2.ppp[0].queue queueingTime:histogram:count 17
scalar multi.router2.ppp[0].queue queueingTime:histogram:sumweights 17
scalar multi.router2.ppp[0].queue queueingTime:histogram:mean 0
scalar multi.router2.ppp[0].queue queueingTime:histogram:stddev 0
scalar multi.router2.ppp[0].queue queueingTime:histogram:min 0
scalar multi.router2.ppp[0].queue queueingTime:histogram:max 0
scalar multi.router2.ppp[0].queue queueingTime:histogram:numbins 50
scalar multi.router2.ppp[0].queue queueingTime:histogram:rangemin -0.5
scalar multi.router2.ppp[0].queue queueingTime:histogram:rangemax 0.5
scalar multi.router2.ppp[0].queue queueingTime:histogram:underflows 0
scalar multi.router2.ppp[0].queue queueingTime:histogram:overflows 0
scalar multi.router2.ppp[0].queue outgoingPacketLengths:histogram:count 17
scalar multi.router2.ppp[0].queue outgoingPacketLengths:histogram:sumweights 17
scalar multi.router2.ppp[0].queue outgoingPacketLengths:histogram:mean 423.52941176471
scalar multi.router2.ppp[0].queue outgoingPacketLengths:histogram:stddev 214.82030794569
scalar multi.router2.ppp[0].queue outgoingPacketLengths:histogram:min 288
scalar multi.router2.ppp[0].queue outgoingPacketLengths:histogram:max 1248
scalar multi.router2.ppp[0].queue outgoingPacketLengths:histogram:numbins 73
scalar multi.router2.ppp[0].queue outgoingPacketLengths:histogram:rangemin 40
scalar multi.router2.ppp[0].queue outgoingPacketLengths:histogram:rangemax 1500
scalar multi.router2.ppp[0].queue outgoingPacketLengths:histogram:underflows 0
scalar multi.router2.ppp[0].queue outgoingPacketLengths:histogram:overflows 0
scalar multi.router2.ppp[0].queue flowQueueingTime:histogram:count 0
scalar multi.router2.ppp[0].queue flowQueueingTime:histogram:sumweights 0
scalar multi.router2.ppp[0].queue flowQueueingTime:histogram:mean -nan
scalar multi.router2.ppp[0].queue flowQueueingTime:histogram:stddev nan
scalar multi.router2.ppp[0].queue flowQueueingTime:histogram:min nan
scalar multi.router2.ppp[0].queue flowQueueingTime:histogram:max nan
scalar multi.router2.ppp[0].queue flowQueueingTime:histogram:numbins 1
scalar multi.router2.ppp[0].queue flowQueueingTime:histogram:rangemin 0
scalar multi.router2.ppp[0].queue flowQueueingTime:histogram:rangemax 1
scalar multi.router2.ppp[0].queue flowQueueingTime:histogram:underflows 0
scalar multi.router2.ppp[0].queue flowQueueingTime:histogram:overflows 0
scalar multi.router2.ppp[0].queue incomingPacketLengths:histogram:count 17
scalar multi.router2.ppp[0].queue incomingPacketLengths:histogram:sumweights 17
scalar multi.router2.ppp[0].queue incomingPacketLengths:histogram:mean 423.52941176471
scalar multi.router2.ppp[0].queue incomingPacketLengths:histogram:stddev 214.82030794569
scalar multi.router2.ppp[0].queue incomingPacketLengths:histogram:min 288
scalar multi.router2.ppp[0].queue incomingPacketLengths:histogram:max 1248
scalar multi.router2.ppp[0].queue incomingPacketLengths:histogram:numbins 73
scalar multi.router2.ppp[0].queue incomingPacketLengths:histogram:rangemin 40
scalar multi.router2.ppp[0].queue incomingPacketLengths:histogram:rangemax 1500
scalar multi.router2.ppp[0].queue incomingPacketLengths:histogram:underflows 0
scalar multi.router2.ppp[0].queue incomingPacketLengths:histogram:overflows 0
scalar multi.router2.ppp[1].queue queueingTime:histogram:count 29
scalar multi.router2.ppp[1].queue queueingTime:histogram:sumweights 29
scalar multi.router2.ppp[1].queue queueingTime:histogram:mean 0
scalar multi.router2.ppp[1].queue queueingTime:histogram:stddev 0
scalar multi.router2.ppp[1].queue queueingTime:histogram:min 0
scalar multi.router2.ppp[1].queue queueingTime:histogram:max 0
scalar multi.router2.ppp[1].queue queueingTime:histogram:numbins 50
scalar multi.router2.ppp[1].queue queueingTime:histogram:rangemin -0.5
scalar multi.router2.ppp[1].queue queueingTime:histogram:rangemax 0.5
scalar multi.router2.ppp[1].queue queueingTime:histogram:underflows 0
scalar multi.router2.ppp[1].queue queueingTime:histogram:overflows 0
scalar multi.router2.ppp[1].queue outgoingPacketLengths:histogram:count 29
scalar multi.router2.ppp[1].queue outgoingPacketLengths:histogram:sumweights 29
scalar multi.router2.ppp[1].queue outgoingPacketLengths:histogram:mean 28322.206896552
scalar multi.router2.ppp[1].queue outgoingPacketLengths:histogram:stddev 11311.636061341
scalar multi.router2.ppp[1].queue outgoingPacketLengths:histogram:min 288
scalar multi.router2.ppp[1].queue outgoingPacketLengths:histogram:max 32768
scalar multi.router2.ppp[1].queue outgoingPacketLengths:histogram:numbins 82
scalar multi.router2.ppp[1].queue outgoingPacketLengths:histogram:rangemin 0
scalar multi.router2.ppp[1].queue outgoingPacketLengths:histogram:rangemax 41000
scalar multi.router2.ppp[1].queue outgoingPacketLengths:histogram:underflows 0
scalar multi.router2.ppp[1].queue outgoingPacketLengths:histogram:overflows 0
scalar multi.router2.ppp[1].queue flowQueueingTime:histogram:count 0
scalar multi.router2.ppp[1].queue flowQueueingTime:histogram:sumweights 0
scalar multi.router2.ppp[1].queue flowQueueingTime:histogram:mean -nan
scalar multi.router2.ppp[1].queue flowQueueingTime:histogram:stddev nan
scalar multi.router2.ppp[1].queue flowQueueingTime:histogram:min nan
scalar multi.router2.ppp[1].queue flowQueueingTime:histogram:max nan
scalar multi.router2.ppp[1].queue flowQueueingTime:histogram:numbins 1
scalar multi.router2.ppp[1].queue flowQueueingTime:histogram:rangemin 0
scalar multi.router2.ppp[1].queue flowQueueingTime:histogram:rangemax 1
scalar multi.router2.ppp[1].queue flowQueueingTime:histogram:underflows 0
scalar multi.router2.ppp[1].queue flowQueueingTime:histogram:overflows 0
scalar multi.router2.ppp[1].queue incomingPacketLengths:histogram:count 29
scalar multi.router2.ppp[1].queue incomingPacketLengths:histogram:sumweights 29
scalar multi.router2.ppp[1].queue incomingPacketLengths:histogram:mean 28322.206896552
scalar multi.router2.ppp[1].queue incomingPacketLengths:histogram:stddev 11311.636061341
scalar multi.router2.ppp[1].queue incomingPacketLengths:histogram:min 288
scalar multi.router2.ppp[1].queue incomingPacketLengths:histogram:max 32768
scalar multi.router2.ppp[1].queue incomingPacketLengths:histogram:numbins 82
scalar multi.router2.ppp[1].queue incomingPacketLengths:histogram:rangemin 0
scalar multi.router2.ppp[1].queue incomingPacketLengths:histogram:rangemax 41000
scalar multi.router2.ppp[1].queue incomingPacketLengths:histogram:underflows 0
scalar multi.router2.ppp[1].queue incomingPacketLengths:histogram:overflows 0
scalar multi.router3.ppp[0].queue queueingTime:histogram:count 2
scalar multi.router3.ppp[0].queue queueingTime:histogram:sumweights 2
scalar multi.router3.ppp[0].queue queueingTime:histogram:mean 0
scalar multi.router3.ppp[0].queue queueingTime:histogram:stddev 0
scalar multi.router3.ppp[0].queue queueingTime:histogram:min 0
scalar multi.router3.ppp[0].queue queueingTime:histogram:max 0
scalar multi.router3.ppp[0].queue queueingTime:histogram:numbins 50
scalar multi.router3.ppp[0].queue queueingTime:histogram:rangemin -0.5
scalar multi.router3.ppp[0].queue queueingTime:histogram:rangemax 0.5
scalar multi.router3.ppp[0].queue queueingTime:histogram:underflows 0
scalar multi.router3.ppp[0].queue queueingTime:histogram:overflows 0
scalar multi.router3.ppp[0].queue outgoingPacketLengths:histogram:count 2
scalar multi.router3.ppp[0].queue outgoingPacketLengths:histogram:sumweights 2
scalar multi.router3.ppp[0].queue outgoingPacketLengths:histogram:mean 384
scalar multi.router3.ppp[0].queue outgoingPacketLengths:histogram:stddev 0
scalar multi.router3.ppp[0].queue outgoingPacketLengths:histogram:min 384
scalar multi.router3.ppp[0].queue outgoingPacketLengths:histogram:max 384
scalar multi.router3.ppp[0].queue outgoingPacketLengths:histogram:numbins 2
scalar multi.router3.ppp[0].queue outgoingPacketLengths:histogram:rangemin 383
scalar multi.router3.ppp[0].queue outgoingPacketLengths:histogram:rangemax 385
scalar multi.router3.ppp[0].queue outgoingPacketLengths:histogram:underflows 0
scalar multi.router3.ppp[0].queue outgoingPacketLengths:histogram:overflows 0
scalar multi.router3.ppp[0].queue flowQueueingTime:histogram:count 0
scalar multi.router3.ppp[0].queue flowQueueingTime:histogram:sumweights 0
scalar multi.router3.ppp[0].queue flowQueueingTime:histogram:mean -nan
scalar multi.router3.ppp[0].queue flowQueueingTime:histogram:stddev nan
scalar multi.router3.ppp[0].queue flowQueueingTime:histogram:min nan
scalar multi.router3.ppp[0].queue flowQueueingTime:histogram:max nan
scalar multi.router3.ppp[0].queue flowQueueingTime:histogram:numbins 1
scalar multi.router3.ppp[0].queue flowQueueingTime:histogram:rangemin 0
scalar multi.router3.ppp[0].queue flowQueueingTime:histogram:rangemax 1
scalar multi.router3.ppp[0].queue flowQueueingTime:histogram:underflows 0
scalar multi.router3.ppp[0].queue flowQueueingTime:histogram:overflows 0
scalar multi.router3.ppp[0].queue incomingPacketLengths:histogram:count 2
scalar multi.router3.ppp[0].queue incomingPacketLengths:histogram:sumweights 2
scalar multi.router3.ppp[0].queue incomingPacketLengths:histogram:mean 384
scalar multi.router3.ppp[0].queue incomingPacketLengths:histogram:stddev 0
scalar multi.router3.ppp[0].queue incomingPacketLengths:histogram:min 384
scalar multi.router3.ppp[0].queue incomingPacketLengths:histogram:max 384
scalar multi.router3.ppp[0].queue incomingPacketLengths:histogram:numbins 2
scalar multi.router3.ppp[0].queue incomingPacketLengths:histogram:rangemin 383
scalar multi.router3.ppp[0].queue incomingPacketLengths:histogram:rangemax 385
scalar multi.router3.ppp[0].queue incomingPacketLengths:histogram:underflows 0
scalar multi.router3.ppp[0].queue incomingPacketLengths:histogram:overflows 0
scalar multi.router3.ppp[1].queue queueingTime:histogram:count 2
scalar multi.router3.ppp[1].queue queueingTime:histogram:sumweights 2
scalar multi.router3.ppp[1].queue queueingTime:histogram:mean 0.000171904
scalar multi.router3.ppp[1].queue queueingTime:histogram:stddev 0.00024310896822618
scalar multi.router3.ppp[1].queue queueingTime:histogram:min 0
scalar multi.router3.ppp[1].queue queueingTime:histogram:max 0.000343808
scalar multi.router3.ppp[1].queue queueingTime:histogram:numbins 86
scalar multi.router3.ppp[1].queue queueingTime:histogram:rangemin 0
scalar multi.router3.ppp[1].queue queueingTime:histogram:rangemax 0.00043
scalar multi.router3.ppp[1].queue queueingTime:histogram:underflows 0
scalar multi.router3.ppp[1].queue queueingTime:histogram:overflows 0
scalar multi.router3.ppp[1].queue outgoingPacketLengths:histogram:count 2
scalar multi.router3.ppp[1].queue outgoingPacketLengths:histogram:sumweights 2
scalar multi.router3.ppp[1].queue outgoingPacketLengths:histogram:mean 384
scalar multi.router3.ppp[1].queue outgoingPacketLengths:histogram:stddev 0
scalar multi.router3.ppp[1].queue outgoingPacketLengths:histogram:min 384
scalar multi.router3.ppp[1].queue outgoingPacketLengths:histogram:max 384
scalar multi.router3.ppp[1].queue outgoingPacketLengths:histogram:numbins 2
scalar multi.router3.ppp[1].queue outgoingPacketLengths:histogram:rangemin 383
scalar multi.router3.ppp[1].queue outgoingPacketLengths:histogram:rangemax 385
scalar multi.router3.ppp[1].queue outgoingPacketLengths:histogram:underflows 0
scalar multi.router3.ppp[1].queue outgoingPacketLengths:histogram:overflows 0
scalar multi.router3.ppp[1].queue flowQueueingTime:histogram:count 0
scalar multi.router3.ppp[1].queue flowQueueingTime:histogram:sumweights 0
scalar multi.router3.ppp[1].queue flowQueueingTime:histogram:mean -nan
scalar multi.router3.ppp[1].queue flowQueueingTime:histogram:stddev nan
scalar multi.router3.ppp[1].queue flowQueueingTime:histogram:min nan
scalar multi.router3.ppp[1].queue flowQueueingTime:histogram:max nan
scalar multi.router3.ppp[1].queue flowQueueingTime:histogram:numbins 1
scalar multi.router3.ppp[1].queue flowQueueingTime:histogram:rangemin 0
scalar multi.router3.ppp[1].queue flowQueueingTime:histogram:rangemax 1
scalar multi.router3.ppp[1].queue flowQueueingTime:histogram:underflows 0
scalar multi.router3.ppp[1].queue flowQueueingTime:histogram:overflows 0
scalar multi.router3.ppp[1].queue incomingPacketLengths:histogram:count 2
scalar multi.router3.ppp[1].queue incomingPacketLengths:histogram:sumweights 2
scalar multi.router3.ppp[1].queue incomingPacketLengths:histogram:mean 384
scalar multi.router3.ppp[1].queue incomingPacketLengths:histogram:stddev 0
scalar multi.router3.ppp[1].queue incomingPacketLengths:histogram:min 384
scalar multi.router3.ppp[1].queue incomingPacketLengths:histogram:max 384
scalar multi.router3.ppp[1].queue incomingPacketLengths:histogram:numbins 2
scalar multi.router3.ppp[1].queue incomingPacketLengths:histogram:rangemin 383
scalar multi.router3.ppp[1].queue incomingPacketLengths:histogram:rangemax 385
scalar multi.router3.ppp[1].queue incomingPacketLengths:histogram:underflows 0
scalar multi.router3.ppp[1].queue incomingPacketLengths:histogram:overflows 0
scalar multi.router4.ppp[0].queue queueingTime:histogram:count 2
scalar multi.router4.ppp[0].queue queueingTime:histogram:sumweights 2
scalar multi.router4.ppp[0].queue queueingTime:histogram:mean 0
scalar multi.router4.ppp[0].queue queueingTime:histogram:stddev 0
scalar multi.router4.ppp[0].queue queueingTime:histogram:min 0
scalar multi.router4.ppp[0].queue queueingTime:histogram:max 0
scalar multi.router4.ppp[0].queue queueingTime:histogram:numbins 50
scalar multi.router4.ppp[0].queue queueingTime:histogram:rangemin -0.5
scalar multi.router4.ppp[0].queue queueingTime:histogram:rangemax 0.5
scalar multi.router4.ppp[0].queue queueingTime:histogram:underflows 0
scalar multi.router4.ppp[0].queue queueingTime:histogram:overflows 0
scalar multi.router4.ppp[0].queue outgoingPacketLengths:histogram:count 2
scalar multi.router4.ppp[0].queue outgoingPacketLengths:histogram:sumweights 2
scalar multi.router4.ppp[0].queue outgoingPacketLengths:histogram:mean 384
scalar multi.router4.ppp[0].queue outgoingPacketLengths:histogram:stddev 0
scalar multi.router4.ppp[0].queue outgoingPacketLengths:histogram:min 384
scalar multi.router4.ppp[0].queue outgoingPacketLengths:histogram:max 384
scalar multi.router4.ppp[0].queue outgoingPacketLengths:histogram:numbins 2
scalar multi.router4.ppp[0].queue outgoingPacketLengths:histogram:rangemin 383
scalar multi.router4.ppp[0].queue outgoingPacketLengths:histogram:rangemax 385
scalar multi.router4.ppp[0].queue outgoingPacketLengths:histogram:underflows 0
scalar multi.router4.ppp[0].queue outgoingPacketLengths:histogram:overflows 0
scalar multi.router4.ppp[0].queue flowQueueingTime:histogram:count 0
scalar multi.router4.ppp[0].queue flowQueueingTime:histogram:sumweights 0
scalar multi.router4.ppp[0].queue flowQueueingTime:histogram:mean -nan
scalar multi.router4.ppp[0].queue flowQueueingTime:histogram:stddev nan
scalar multi.router4.ppp[0].queue flowQueueingTime:histogram:min nan
scalar multi.router4.ppp[0].queue flowQueueingTime:histogram:max nan
scalar multi.router4.ppp[0].queue flowQueueingTime:histogram:numbins 1
scalar multi.router4.ppp[0].queue flowQueueingTime:histogram:rangemin 0
scalar multi.router4.ppp[0].queue flowQueueingTime:histogram:rangemax 1
scalar multi.router4.ppp[0].queue flowQueueingTime:histogram:underflows 0
scalar multi.router4.ppp[0].queue flowQueueingTime:histogram:overflows 0
scalar multi.router4.ppp[0].queue incomingPacketLengths:histogram:count 2
scalar multi.router4.ppp[0].queue incomingPacketLengths:histogram:sumweights 2
scalar multi.router4.ppp[0].queue incomingPacketLengths:histogram:mean 384
scalar multi.router4.ppp[0].queue incomingPacketLengths:histogram:stddev 0
scalar multi.router4.ppp[0].queue incomingPacketLengths:histogram:min 384
scalar multi.router4.ppp[0].queue incomingPacketLengths:histogram:max 384
scalar multi.router4.ppp[0].queue incomingPacketLengths:histogram:numbins 2
scalar multi.router4.ppp[0].queue incomingPacketLengths:histogram:rangemin 383
scalar multi.router4.ppp[0].queue incomingPacketLengths:histogram:rangemax 385
scalar multi.router4.ppp[0].queue incomingPacketLengths:histogram:underflows 0
scalar multi.router4.ppp[0].queue incomingPacketLengths:histogram:overflows 0
scalar multi.router4.ppp[1].queue queueingTime:histogram:count 2
scalar multi.router4.ppp[1].queue queueingTime:histogram:sumweights 2
scalar multi.router4.ppp[1].queue queueingTime:histogram:mean 0
scalar multi.router4.ppp[1].queue queueingTime:histogram:stddev 0
scalar multi.router4.ppp[1].queue queueingTime:histogram:min 0
scalar multi.router4.ppp[1].queue queueingTime:histogram:max 0
scalar multi.router4.ppp[1].queue queueingTime:histogram:numbins 50
scalar multi.router4.ppp[1].queue queueingTime:histogram:rangemin -0.5
scalar multi.router4.ppp[1].queue queueingTime:histogram:rangemax 0.5
scalar multi.router4.ppp[1].queue queueingTime:histogram:underflows 0
scalar multi.router4.ppp[1].queue queueingTime:histogram:overflows 0
scalar multi.router4.ppp[1].queue outgoingPacketLengths:histogram:count 2
scalar multi.router4.ppp[1].queue outgoingPacketLengths:histogram:sumweights 2
scalar multi.router4.ppp[1].queue outgoingPacketLengths:histogram:mean 384
scalar multi.router4.ppp[1].queue outgoingPacketLengths:histogram:stddev 0
scalar multi.router4.ppp[1].queue outgoingPacketLengths:histogram:min 384
scalar multi.router4.ppp[1].queue outgoingPacketLengths:histogram:max 384
scalar multi.router4.ppp[1].queue outgoingPacketLengths:histogram:numbins 2
scalar multi.router4.ppp[1].queue outgoingPacketLengths:histogram:rangemin 383
scalar multi.router4.ppp[1].queue outgoingPacketLengths:histogram:rangemax 385
scalar multi.router4.ppp[1].queue outgoingPacketLengths:histogram:underflows 0
scalar multi.router4.ppp[1].queue outgoingPacketLengths:histogram:overflows 0
scalar multi.router4.ppp[1].queue flowQueueingTime:histogram:count 0
scalar multi.router4.ppp[1].queue flowQueueingTime:histogram:sumweights 0
scalar multi.router4.ppp[1].queue flowQueueingTime:histogram:mean -nan
scalar multi.router4.ppp[1].queue flowQueueingTime:histogram:stddev nan
scalar multi.router4.ppp[1].queue flowQueueingTime:histogram:min nan
scalar multi.router4.ppp[1].queue flowQueueingTime:histogram:max nan
scalar multi.router4.ppp[1].queue flowQueueingTime:histogram:numbins 1
scalar multi.router4.ppp[1].queue flowQueueingTime:histogram:rangemin 0
scalar multi.router4.ppp[1].queue flowQueueingTime:histogram:rangemax 1
scalar multi.router4.ppp[1].queue flowQueueingTime:histogram:underflows 0
scalar multi.router4.ppp[1].queue flowQueueingTime:histogram:overflows 0
scalar multi.router4.ppp[1].queue incomingPacketLengths:histogram:count 2
scalar multi.router4.ppp[1].queue incomingPacketLengths:histogram:sumweights 2
scalar multi.router4.ppp[1].queue incomingPacketLengths:histogram:mean 384
scalar multi.router4.ppp[1].queue incomingPacketLengths:histogram:stddev 0
scalar multi.router4.ppp[1].queue incomingPacketLengths:histogram:min 384
scalar multi.router4.ppp[1].queue incomingPacketLengths:histogram:max 384
scalar multi.router4.ppp[1].queue incomingPacketLengths:histogram:numbins 2
scalar multi.router4.ppp[1].queue incomingPacketLengths:histogram:rangemin 383
scalar multi.router4.ppp[1].queue incomingPacketLengths:histogram:rangemax 385
scalar multi.router4.ppp[1].queue incomingPacketLengths:histogram:underflows 0
scalar multi.router4.ppp[1].queue incomingPacketLengths:histogram:overflows 0
statistic multi.cli1.ppp[0].queue queueingTime:histogram
field count 29
field mean 2.4900965517241e-05
field stddev 2.7258848307192e-05
field min 0
field max 6.5648e-05
field sum 0.000722128
field sqrsum 3.8786939136e-08
bin	-inf	0
bin	0	14
bin	1e-06	0
bin	2e-06	0
bin	3e-06	0
bin	4e-06	0
bin	5e-06	0
bin	6e-06	0
bin	7e-06	0
bin	8e-06	0
bin	9e-06	0
bin	1e-05	0
bin	1.1e-05	0
bin	1.2e-05	0
bin	1.3e-05	0
bin	1.4e-05	0
bin	1.5e-05	0
bin	1.6e-05	0
bin	1.7e-05	0
bin	1.8e-05	0
bin	1.9e-05	0
bin	2e-05	0
bin	2.1e-05	0
bin	2.2e-05	0
bin	2.3e-05	0
bin	2.4e-05	0
bin	2.5e-05	0
bin	2.6e-05	0
bin	2.7e-05	0
bin	2.8e-05	0
bin	2.9e-05	0
bin	3e-05	0
bin	3.1e-05	0
bin	3.2e-05	8
bin	3.3e-05	0
[...]
scalar multi.srv1.sctp "TSN Received 16:10.1.1.1:min" 1000
scalar multi.srv1.sctp "TSN Received 16:10.1.1.1:max" 1099
scalar multi.srv1.sctp "TSN Received 16:10.1.1.1:starttime" 1.08619224
scalar multi.srv1.sctp "TSN Received 16:10.1.1.1:endtime" 2.114981296
scalar multi.srv1.sctp "Stream 0 Throughput:count" 2
scalar multi.srv1.sctp "Stream 0 Throughput:sum" 91.126552574836
scalar multi.srv1.sctp "Stream 0 Throughput:sumweights" 2
scalar multi.srv1.sctp "Stream 0 Throughput:mean" 45.563276287418
scalar multi.srv1.sctp "Stream 0 Throughput:stddev" 64.436203271819
scalar multi.srv1.sctp "Stream 0 Throughput:min" 0
scalar multi.srv1.sctp "Stream 0 Throughput:max" 91.126552574836
scalar multi.srv1.sctp "Stream 0 Throughput:starttime" 1.08619224
scalar multi.srv1.sctp "Stream 0 Throughput:endtime" 2.114981296
scalar multi.srv1.sctp "Queued Received Bytes 15:Total:count" 114
scalar multi.srv1.sctp "Queued Received Bytes 15:Total:sum" 148000
scalar multi.srv1.sctp "Queued Received Bytes 15:Total:sumweights" 114
scalar multi.srv1.sctp "Queued Received Bytes 15:Total:mean" 1298.2456140351
scalar multi.srv1.sctp "Queued Received Bytes 15:Total:stddev" 1881.1116303103
scalar multi.srv1.sctp "Queued Received Bytes 15:Total:min" 0
scalar multi.srv1.sctp "Queued Received Bytes 15:Total:max" 4000
scalar multi.srv1.sctp "Queued Received Bytes 15:Total:starttime" 1.08619224
scalar multi.srv1.sctp "Queued Received Bytes 15:Total:endtime" 2.314981296
scalar multi.srv1.sctp "Advertised Receiver Window 15:count" 14
scalar multi.srv1.sctp "Advertised Receiver Window 15:sum" 869490
scalar multi.srv1.sctp "Advertised Receiver Window 15:sumweights" 14
scalar multi.srv1.sctp "Advertised Receiver Window 15:mean" 62106.428571429
scalar multi.srv1.sctp "Advertised Receiver Window 15:stddev" 1452.5460784052
scalar multi.srv1.sctp "Advertised Receiver Window 15:min" 61535
scalar multi.srv1.sctp "Advertised Receiver Window 15:max" 65535
scalar multi.srv1.sctp "Advertised Receiver Window 15:starttime" 1.08619224
scalar multi.srv1.sctp "Advertised Receiver Window 15:endtime" 2.314981296
scalar multi.srv1.sctp "Number of Total Gap Blocks Stored 15:count" 14
scalar multi.srv1.sctp "Number of Total Gap Blocks Stored 15:sum" 0
scalar multi.srv1.sctp "Number of Total Gap Blocks Stored 15:sumweights" 14
scalar multi.srv1.sctp "Number of Total Gap Blocks Stored 15:mean" 0
scalar multi.srv1.sctp "Number of Total Gap Blocks Stored 15:stddev" 0
scalar multi.srv1.sctp "Number of Total Gap Blocks Stored 15:min" 0
scalar multi.srv1.sctp "Number of Total Gap Blocks Stored 15:max" 0
scalar multi.srv1.sctp "Number of Total Gap Blocks Stored 15:starttime" 1.08619224
scalar multi.srv1.sctp "Number of Total Gap Blocks Stored 15:endtime" 2.314981296
scalar multi.srv1.sctp "Number of Revokable Gap Blocks Stored 15:count" 14
scalar multi.srv1.sctp "Number of Revokable Gap Blocks Stored 15:sum" 0
scalar multi.srv1.sctp "Number of Revokable Gap Blocks Stored 15:sumweights" 14
scalar multi.srv1.sctp "Number of Revokable Gap Blocks Stored 15:mean" 0
scalar multi.srv1.sctp "Number of Revokable Gap Blocks Stored 15:stddev" 0
scalar multi.srv1.sctp "Number of Revokable Gap Blocks Stored 15:min" 0
scalar multi.srv1.sctp "Number of Revokable Gap Blocks Stored 15:max" 0
scalar multi.srv1.sctp "Number of Revokable Gap Blocks Stored 15:starttime" 1.08619224
scalar multi.srv1.sctp "Number of Revokable Gap Blocks Stored 15:endtime" 2.314981296
scalar multi.srv1.sctp "Number of Non-Revokable Gap Blocks Stored 15:count" 14
scalar multi.srv1.sctp "Number of Non-Revokable Gap Blocks Stored 15:sum" 0
scalar multi.srv1.sctp "Number of Non-Revokable Gap Blocks Stored 15:sumweights" 14
scalar multi.srv1.sctp "Number of Non-Revokable Gap Blocks Stored 15:mean" 0
scalar multi.srv1.sctp "Number of Non-Revokable Gap Blocks Stored 15:stddev" 0
scalar multi.srv1.sctp "Number of Non-Revokable Gap Blocks Stored 15:min" 0
scalar multi.srv1.sctp "Number of Non-Revokable Gap Blocks Stored 15:max" 0
scalar multi.srv1.sctp "Number of Non-Revokable Gap Blocks Stored 15:starttime" 1.08619224
scalar multi.srv1.sctp "Number of Non-Revokable Gap Blocks Stored 15:endtime" 2.314981296
scalar multi.srv1.sctp "Number of Duplicate TSNs Stored 15:count" 14
scalar multi.srv1.sctp "Number of Duplicate TSNs Stored 15:sum" 0
scalar multi.srv1.sctp "Number of Duplicate TSNs Stored 15:sumweights" 14
scalar multi.srv1.sctp "Number of Duplicate TSNs Stored 15:mean" 0
scalar multi.srv1.sctp "Number of Duplicate TSNs Stored 15:stddev" 0
scalar multi.srv1.sctp "Number of Duplicate TSNs Stored 15:min" 0
scalar multi.srv1.sctp "Number of Duplicate TSNs Stored 15:max" 0
scalar multi.srv1.sctp "Number of Duplicate TSNs Stored 15:starttime" 1.08619224
scalar multi.srv1.sctp "Number of Duplicate TSNs Stored 15:endtime" 2.314981296
scalar multi.srv1.sctp "Length of SACK Sent 15:count" 14
scalar multi.srv1.sctp "Length of SACK Sent 15:sum" 224
scalar multi.srv1.sctp "Length of SACK Sent 15:sumweights" 14
scalar multi.srv1.sctp "Length of SACK Sent 15:mean" 16
scalar multi.srv1.sctp "Length of SACK Sent 15:stddev" 0
scalar multi.srv1.sctp "Length of SACK Sent 15:min" 16
scalar multi.srv1.sctp "Length of SACK Sent 15:max" 16
scalar multi.srv1.sctp "Length of SACK Sent 15:starttime" 1.08619224
scalar multi.srv1.sctp "Length of SACK Sent 15:endtime" 2.314981296
scalar multi.srv1.sctp "Number of Revokable Gap Blocks Sent 15:count" 14
scalar multi.srv1.sctp "Number of Revokable Gap Blocks Sent 15:sum" 0
scalar multi.srv1.sctp "Number of Revokable Gap Blocks Sent 15:sumweights" 14
scalar multi.srv1.sctp "Number of Revokable Gap Blocks Sent 15:mean" 0
scalar multi.srv1.sctp "Number of Revokable Gap Blocks Sent 15:stddev" 0
scalar multi.srv1.sctp "Number of Revokable Gap Blocks Sent 15:min" 0
scalar multi.srv1.sctp "Number of Revokable Gap Blocks Sent 15:max" 0
scalar multi.srv1.sctp "Number of Revokable Gap Blocks Sent 15:starttime" 1.08619224
scalar multi.srv1.sctp "Number of Revokable Gap Blocks Sent 15:endtime" 2.314981296
scalar multi.srv1.sctp "Number of Non-Revokable Gap Blocks Sent 15:count" 14
scalar multi.srv1.sctp "Number of Non-Revokable Gap Blocks Sent 15:sum" 0
scalar multi.srv1.sctp "Number of Non-Revokable Gap Blocks Sent 15:sumweights" 14
scalar multi.srv1.sctp "Number of Non-Revokable Gap Blocks Sent 15:mean" 0
scalar multi.srv1.sctp "Number of Non-Revokable Gap Blocks Sent 15:stddev" 0
scalar multi.srv1.sctp "Number of Non-Revokable Gap Blocks Sent 15:min" 0
scalar multi.srv1.sctp "Number of Non-Revokable Gap Blocks Sent 15:max" 0
scalar multi.srv1.sctp "Number of Non-Revokable Gap Blocks Sent 15:starttime" 1.08619224
scalar multi.srv1.sctp "Number of Non-Revokable Gap Blocks Sent 15:endtime" 2.314981296
scalar multi.srv1.sctp "Number of Duplicate TSNs Sent 15:count" 14
scalar multi.srv1.sctp "Number of Duplicate TSNs Sent 15:sum" 0
scalar multi.srv1.sctp "Number of Duplicate TSNs Sent 15:sumweights" 14
scalar multi.srv1.sctp "Number of Duplicate TSNs Sent 15:mean" 0
scalar multi.srv1.sctp "Number of Duplicate TSNs Sent 15:stddev" 0
scalar multi.srv1.sctp "Number of Duplicate TSNs Sent 15:min" 0
scalar multi.srv1.sctp "Number of Duplicate TSNs Sent 15:max" 0
scalar multi.srv1.sctp "Number of Duplicate TSNs Sent 15:starttime" 1.08619224
scalar multi.srv1.sctp "Number of Duplicate TSNs Sent 15:endtime" 2.314981296
scalar multi.srv1.sctp "End to End Delay of Association 15:count" 100
scalar multi.srv1.sctp "End to End Delay of Association 15:sum" 15.64674656
scalar multi.srv1.sctp "End to End Delay of Association 15:sumweights" 100
scalar multi.srv1.sctp "End to End Delay of Association 15:mean" 0.1564674656
scalar multi.srv1.sctp "End to End Delay of Association 15:stddev" 0.07681064862019
scalar multi.srv1.sctp "End to End Delay of Association 15:min" 0.042889648
scalar multi.srv1.sctp "End to End Delay of Association 15:max" 0.28497512
scalar multi.srv1.sctp "End to End Delay of Association 15:starttime" 1.08619224
scalar multi.srv1.sctp "End to End Delay of Association 15:endtime" 2.114981296
scalar multi.srv1.app[0] "App: Received Bytes of assoc 16:count" 100
scalar multi.srv1.app[0] "App: Received Bytes of assoc 16:sum" 5050000
scalar multi.srv1.app[0] "App: Received Bytes of assoc 16:sumweights" 100
scalar multi.srv1.app[0] "App: Received Bytes of assoc 16:mean" 50500
scalar multi.srv1.app[0] "App: Received Bytes of assoc 16:stddev" 29011.491975882
scalar multi.srv1.app[0] "App: Received Bytes of assoc 16:min" 1000
scalar multi.srv1.app[0] "App: Received Bytes of assoc 16:max" 100000
scalar multi.srv1.app[0] "App: Received Bytes of assoc 16:starttime" 1.08619224
scalar multi.srv1.app[0] "App: Received Bytes of assoc 16:endtime" 2.114981296
scalar multi.srv1.app[0] "App: EndToEndDelay of assoc 16:count" 100
scalar multi.srv1.app[0] "App: EndToEndDelay of assoc 16:sum" 150.8586768
scalar multi.srv1.app[0] "App: EndToEndDelay of assoc 16:sumweights" 100
scalar multi.srv1.app[0] "App: EndToEndDelay of assoc 16:mean" 1.508586768
scalar multi.srv1.app[0] "App: EndToEndDelay of assoc 16:stddev" 0.25725414204519
scalar multi.srv1.app[0] "App: EndToEndDelay of assoc 16:min" 1.08619224
scalar multi.srv1.app[0] "App: EndToEndDelay of assoc 16:max" 2.114981296
scalar multi.srv1.app[0] "App: EndToEndDelay of assoc 16:starttime" 1.08619224
scalar multi.srv1.app[0] "App: EndToEndDelay of assoc 16:endtime" 2.114981296
scalar multi.cli1.sctp "Number of Gap Blocks in Last SACK of Association 1:count" 14
scalar multi.cli1.sctp "Number of Gap Blocks in Last SACK of Association 1:sum" 0
scalar multi.cli1.sctp "Number of Gap Blocks in Last SACK of Association 1:sumweights" 14
scalar multi.cli1.sctp "Number of Gap Blocks in Last SACK of Association 1:mean" 0
scalar multi.cli1.sctp "Number of Gap Blocks in Last SACK of Association 1:stddev" 0
scalar multi.cli1.sctp "Number of Gap Blocks in Last SACK of Association 1:min" 0
scalar multi.cli1.sctp "Number of Gap Blocks in Last SACK of Association 1:max" 0
scalar multi.cli1.sctp "Number of Gap Blocks in Last SACK of Association 1:starttime" 1.09663312
scalar multi.cli1.sctp "Number of Gap Blocks in Last SACK of Association 1:endtime" 2.325422176
scalar multi.cli1.sctp "Number of Revokable Gap Blocks in SACK 1:count" 14
scalar multi.cli1.sctp "Number of Revokable Gap Blocks in SACK 1:sum" 0
scalar multi.cli1.sctp "Number of Revokable Gap Blocks in SACK 1:sumweights" 14
scalar multi.cli1.sctp "Number of Revokable Gap Blocks in SACK 1:mean" 0
scalar multi.cli1.sctp "Number of Revokable Gap Blocks in SACK 1:stddev" 0
scalar multi.cli1.sctp "Number of Revokable Gap Blocks in SACK 1:min" 0
scalar multi.cli1.sctp "Number of Revokable Gap Blocks in SACK 1:max" 0
scalar multi.cli1.sctp "Number of Revokable Gap Blocks in SACK 1:starttime" 1.09663312
scalar multi.cli1.sctp "Number of Revokable Gap Blocks in SACK 1:endtime" 2.325422176
scalar multi.cli1.sctp "Number of Non-Revokable Gap Blocks in SACK 1:count" 14
scalar multi.cli1.sctp "Number of Non-Revokable Gap Blocks in SACK 1:sum" 0
scalar multi.cli1.sctp "Number of Non-Revokable Gap Blocks in SACK 1:sumweights" 14
scalar multi.cli1.sctp "Number of Non-Revokable Gap Blocks in SACK 1:mean" 0
scalar multi.cli1.sctp "Number of Non-Revokable Gap Blocks in SACK 1:stddev" 0
scalar multi.cli1.sctp "Number of Non-Revokable Gap Blocks in SACK 1:min" 0
scalar multi.cli1.sctp "Number of Non-Revokable Gap Blocks in SACK 1:max" 0
scalar multi.cli1.sctp "Number of Non-Revokable Gap Blocks in SACK 1:starttime" 1.09663312
scalar multi.cli1.sctp "Number of Non-Revokable Gap Blocks in SACK 1:endtime" 2.325422176
scalar multi.cli1.sctp "TSN Acked CumAck 1:10.1.3.1:count" 14
scalar multi.cli1.sctp "TSN Acked CumAck 1:10.1.3.1:sum" 14758
scalar multi.cli1.sctp "TSN Acked CumAck 1:10.1.3.1:sumweights" 14
scalar multi.cli1.sctp "TSN Acked CumAck 1:10.1.3.1:mean" 1054.1428571429
scalar multi.cli1.sctp "TSN Acked CumAck 1:10.1.3.1:stddev" 32.160312720584
scalar multi.cli1.sctp "TSN Acked CumAck 1:10.1.3.1:min" 1003
scalar multi.cli1.sctp "TSN Acked CumAck 1:10.1.3.1:max" 1099
scalar multi.cli1.sctp "TSN Acked CumAck 1:10.1.3.1:starttime" 1.09663312
scalar multi.cli1.sctp "TSN Acked CumAck 1:10.1.3.1:endtime" 2.325422176
scalar multi.cli1.sctp "RTT 1:10.1.3.1:count" 10
scalar multi.cli1.sctp "RTT 1:10.1.3.1:sum" 1.938599584
scalar multi.cli1.sctp "RTT 1:10.1.3.1:sumweights" 10
scalar multi.cli1.sctp "RTT 1:10.1.3.1:mean" 0.1938599584
scalar multi.cli1.sctp "RTT 1:10.1.3.1:stddev" 0.13314414823204
scalar multi.cli1.sctp "RTT 1:10.1.3.1:min" 0.053330528
scalar multi.cli1.sctp "RTT 1:10.1.3.1:max" 0.495416
scalar multi.cli1.sctp "RTT 1:10.1.3.1:starttime" 1.09663312
scalar multi.cli1.sctp "RTT 1:10.1.3.1:endtime" 2.325422176
scalar multi.cli1.sctp "Number of Gap Acked Chunks in Last SACK 1:10.1.3.1:count" 14
scalar multi.cli1.sctp "Number of Gap Acked Chunks in Last SACK 1:10.1.3.1:sum" 0
scalar multi.cli1.sctp "Number of Gap Acked Chunks in Last SACK 1:10.1.3.1:sumweights" 14
scalar multi.cli1.sctp "Number of Gap Acked Chunks in Last SACK 1:10.1.3.1:mean" 0
scalar multi.cli1.sctp "Number of Gap Acked Chunks in Last SACK 1:10.1.3.1:stddev" 0
scalar multi.cli1.sctp "Number of Gap Acked Chunks in Last SACK 1:10.1.3.1:min" 0
scalar multi.cli1.sctp "Number of Gap Acked Chunks in Last SACK 1:10.1.3.1:max" 0
scalar multi.cli1.sctp "Number of Gap Acked Chunks in Last SACK 1:10.1.3.1:starttime" 1.09663312
scalar multi.cli1.sctp "Number of Gap Acked Chunks in Last SACK 1:10.1.3.1:endtime" 2.325422176
scalar multi.cli1.sctp "Number of Non-Revokable Gap Acked Chunks in Last SACK 1:10.1.3.1:count" 14
scalar multi.cli1.sctp "Number of Non-Revokable Gap Acked Chunks in Last SACK 1:10.1.3.1:sum" 0
scalar multi.cli1.sctp "Number of Non-Revokable Gap Acked Chunks in Last SACK 1:10.1.3.1:sumweights" 14
scalar multi.cli1.sctp "Number of Non-Revokable Gap Acked Chunks in Last SACK 1:10.1.3.1:mean" 0
scalar multi.cli1.sctp "Number of Non-Revokable Gap Acked Chunks in Last SACK 1:10.1.3.1:stddev" 0
scalar multi.cli1.sctp "Number of Non-Revokable Gap Acked Chunks in Last SACK 1:10.1.3.1:min" 0
scalar multi.cli1.sctp "Number of Non-Revokable Gap Acked Chunks in Last SACK 1:10.1.3.1:max" 0
scalar multi.cli1.sctp "Number of Non-Revokable Gap Acked Chunks in Last SACK 1:10.1.3.1:starttime" 1.09663312
scalar multi.cli1.sctp "Number of Non-Revokable Gap Acked Chunks in Last SACK 1:10.1.3.1:endtime" 2.325422176
scalar multi.cli1.sctp "Number of Gap Missed Chunks in Last SACK 1:10.1.3.1:count" 14
scalar multi.cli1.sctp "Number of Gap Missed Chunks in Last SACK 1:10.1.3.1:sum" 0
scalar multi.cli1.sctp "Number of Gap Missed Chunks in Last SACK 1:10.1.3.1:sumweights" 14
scalar multi.cli1.sctp "Number of Gap Missed Chunks in Last SACK 1:10.1.3.1:mean" 0
scalar multi.cli1.sctp "Number of Gap Missed Chunks in Last SACK 1:10.1.3.1:stddev" 0
scalar multi.cli1.sctp "Number of Gap Missed Chunks in Last SACK 1:10.1.3.1:min" 0
scalar multi.cli1.sctp "Number of Gap Missed Chunks in Last SACK 1:10.1.3.1:max" 0
scalar multi.cli1.sctp "Number of Gap Missed Chunks in Last SACK 1:10.1.3.1:starttime" 1.09663312
scalar multi.cli1.sctp "Number of Gap Missed Chunks in Last SACK 1:10.1.3.1:endtime" 2.325422176
scalar multi.cli1.sctp "Number of Gap Acked Chunks in Last SACK 1:10.2.3.1:count" 14
scalar multi.cli1.sctp "Number of Gap Acked Chunks in Last SACK 1:10.2.3.1:sum" 0
scalar multi.cli1.sctp "Number of Gap Acked Chunks in Last SACK 1:10.2.3.1:sumweights" 14
scalar multi.cli1.sctp "Number of Gap Acked Chunks in Last SACK 1:10.2.3.1:mean" 0
scalar multi.cli1.sctp "Number of Gap Acked Chunks in Last SACK 1:10.2.3.1:stddev" 0
scalar multi.cli1.sctp "Number of Gap Acked Chunks in Last SACK 1:10.2.3.1:min" 0
scalar multi.cli1.sctp "Number of Gap Acked Chunks in Last SACK 1:10.2.3.1:max" 0
scalar multi.cli1.sctp "Number of Gap Acked Chunks in Last SACK 1:10.2.3.1:starttime" 1.09663312
scalar multi.cli1.sctp "Number of Gap Acked Chunks in Last SACK 1:10.2.3.1:endtime" 2.325422176
scalar multi.cli1.sctp "Number of Non-Revokable Gap Acked Chunks in Last SACK 1:10.2.3.1:count" 14
scalar multi.cli1.sctp "Number of Non-Revokable Gap Acked Chunks in Last SACK 1:10.2.3.1:sum" 0
scalar multi.cli1.sctp "Number of Non-Revokable Gap Acked Chunks in Last SACK 1:10.2.3.1:sumweights" 14
scalar multi.cli1.sctp "Number of Non-Revokable Gap Acked Chunks in Last SACK 1:10.2.3.1:mean" 0
scalar multi.cli1.sctp "Number of Non-Revokable Gap Acked Chunks in Last SACK 1:10.2.3.1:stddev" 0
scalar multi.cli1.sctp "Number of Non-Revokable Gap Acked Chunks in Last SACK 1:10.2.3.1:min" 0
scalar multi.cli1.sctp "Number of Non-Revokable Gap Acked Chunks in Last SACK 1:10.2.3.1:max" 0
scalar multi.cli1.sctp "Number of Non-Revokable Gap Acked Chunks in Last SACK 1:10.2.3.1:starttime" 1.09663312
scalar multi.cli1.sctp "Number of Non-Revokable Gap Acked Chunks in Last SACK 1:10.2.3.1:endtime" 2.325422176
scalar multi.cli1.sctp "Number of Gap Missed Chunks in Last SACK 1:10.2.3.1:count" 14
scalar multi.cli1.sctp "Number of Gap Missed Chunks in Last SACK 1:10.2.3.1:sum" 0
scalar multi.cli1.sctp "Number of Gap Missed Chunks in Last SACK 1:10.2.3.1:sumweights" 14
scalar multi.cli1.sctp "Number of Gap Missed Chunks in Last SACK 1:10.2.3.1:mean" 0
scalar multi.cli1.sctp "Number of Gap Missed Chunks in Last SACK 1:10.2.3.1:stddev" 0
scalar multi.cli1.sctp "Number of Gap Missed Chunks in Last SACK 1:10.2.3.1:min" 0
scalar multi.cli1.sctp "Number of Gap Missed Chunks in Last SACK 1:10.2.3.1:max" 0
scalar multi.cli1.sctp "Number of Gap Missed Chunks in Last SACK 1:10.2.3.1:starttime" 1.09663312
scalar multi.cli1.sctp "Number of Gap Missed Chunks in Last SACK 1:10.2.3.1:endtime" 2.325422176
scalar multi.cli1.sctp "Arwnd in Last SACK 1:count" 14
scalar multi.cli1.sctp "Arwnd in Last SACK 1:sum" 869490
scalar multi.cli1.sctp "Arwnd in Last SACK 1:sumweights" 14
scalar multi.cli1.sctp "Arwnd in Last SACK 1:mean" 62106.428571429
scalar multi.cli1.sctp "Arwnd in Last SACK 1:stddev" 1452.5460784052
scalar multi.cli1.sctp "Arwnd in Last SACK 1:min" 61535
scalar multi.cli1.sctp "Arwnd in Last SACK 1:max" 65535
scalar multi.cli1.sctp "Arwnd in Last SACK 1:starttime" 1.09663312
scalar multi.cli1.sctp "Arwnd in Last SACK 1:endtime" 2.325422176
scalar multi.cli1.sctp "TSN PseudoCumAck 1:10.1.3.1:count" 14
scalar multi.cli1.sctp "TSN PseudoCumAck 1:10.1.3.1:sum" 0
scalar multi.cli1.sctp "TSN PseudoCumAck 1:10.1.3.1:sumweights" 14
scalar multi.cli1.sctp "TSN PseudoCumAck 1:10.1.3.1:mean" 0
scalar multi.cli1.sctp "TSN PseudoCumAck 1:10.1.3.1:stddev" 0
scalar multi.cli1.sctp "TSN PseudoCumAck 1:10.1.3.1:min" 0
scalar multi.cli1.sctp "TSN PseudoCumAck 1:10.1.3.1:max" 0
scalar multi.cli1.sctp "TSN PseudoCumAck 1:10.1.3.1:starttime" 1.09663312
scalar multi.cli1.sctp "TSN PseudoCumAck 1:10.1.3.1:endtime" 2.325422176
scalar multi.cli1.sctp "TSN RTXPseudoCumAck 1:10.1.3.1:count" 14
scalar multi.cli1.sctp "TSN RTXPseudoCumAck 1:10.1.3.1:sum" 0
scalar multi.cli1.sctp "TSN RTXPseudoCumAck 1:10.1.3.1:sumweights" 14
scalar multi.cli1.sctp "TSN RTXPseudoCumAck 1:10.1.3.1:mean" 0
scalar multi.cli1.sctp "TSN RTXPseudoCumAck 1:10.1.3.1:stddev" 0
scalar multi.cli1.sctp "TSN RTXPseudoCumAck 1:10.1.3.1:min" 0
scalar multi.cli1.sctp "TSN RTXPseudoCumAck 1:10.1.3.1:max" 0
scalar multi.cli1.sctp "TSN RTXPseudoCumAck 1:10.1.3.1:starttime" 1.09663312
scalar multi.cli1.sctp "TSN RTXPseudoCumAck 1:10.1.3.1:endtime" 2.325422176
scalar multi.cli1.sctp "Partial Bytes Acked 1:10.1.3.1:count" 21
scalar multi.cli1.sctp "Partial Bytes Acked 1:10.1.3.1:sum" 0
scalar multi.cli1.sctp "Partial Bytes Acked 1:10.1.3.1:sumweights" 21
scalar multi.cli1.sctp "Partial Bytes Acked 1:10.1.3.1:mean" 0
scalar multi.cli1.sctp "Partial Bytes Acked 1:10.1.3.1:stddev" 0
scalar multi.cli1.sctp "Partial Bytes Acked 1:10.1.3.1:min" 0
scalar multi.cli1.sctp "Partial Bytes Acked 1:10.1.3.1:max" 0
scalar multi.cli1.sctp "Partial Bytes Acked 1:10.1.3.1:starttime" 1.09663312
scalar multi.cli1.sctp "Partial Bytes Acked 1:10.1.3.1:endtime" 2.325422176

