version 3
run Filetransfer-0-20251118-11:48:17-110683
attr configname Filetransfer
attr datetime 20251118-11:48:17
attr datetimef 20251118-114817
attr experiment Filetransfer
attr inifile filetransfer.ini
attr iterationvars ""
attr iterationvarsd ""
attr iterationvarsf ""
attr measurement ""
attr network NClients
attr processid 110683
attr repetition 0
attr replication #0
attr resultdir results
attr runnumber 0
attr seedset 0
config **.param-recording false
config image-path /home/zoli/Projects/OMNET/inet/images
config output-scalar-file results/filetransfer.ini-Filetransfer-#0.sca
config output-scalar-precision 17
config output-vector-file results/filetransfer.ini-Filetransfer-#0.vec
config output-vector-precision 17
config record-eventlog false
config sim-time-limit 50s
config network NClients
config sim-time-limit 50s
config *.n 5
config **.cli[*].numApps 1
config **.cli[*].app[*].typename TcpSessionApp
config **.cli[*].app[0].active true
config **.cli[*].app[0].localAddress "\"\""
config **.cli[*].app[0].localPort -1
config **.cli[*].app[0].connectAddress "\"srv\""
config **.cli[*].app[0].connectPort 1000
config **.cli[*].app[0].tOpen exponential(0.1s)
config **.cli[*].app[0].tSend 0s
config **.cli[*].app[0].sendBytes 1MiB
config **.cli[*].app[0].sendScript "\"\""
config **.cli[*].app[0].tClose 0s
config **.srv.numApps 1
config **.srv.app[*].typename TcpSinkApp
config **.srv.app[0].localAddress "\"\""
config **.srv.app[0].localPort 1000
config **.ppp[*].queue.typename DropTailQueue
config **.ppp[*].queue.packetCapacity 10

scalar NClients.r1.lo[0].lo rcvdPkFromHl:count 0
scalar NClients.r1.lo[0].lo rcvdPkFromHl:sum(packetBytes) 0
scalar NClients.r1.lo[0].lo passedUpPk:count 0
scalar NClients.r1.lo[0].lo passedUpPk:sum(packetBytes) 0
scalar NClients.r1.lo[0] packetDropInterfaceDown:count 0
scalar NClients.r1.lo[0] packetDropInterfaceDown:sum(packetBytes) 0
scalar NClients.r1.lo[0] packetDropNoCarrier:count 0
scalar NClients.r1.lo[0] packetDropNoCarrier:sum(packetBytes) 0
scalar NClients.r1.ppp[0].queue queueLength:last 0
scalar NClients.r1.ppp[0].queue queueLength:max 0
scalar NClients.r1.ppp[0].queue queueLength:timeavg 0
scalar NClients.r1.ppp[0].queue queueBitLength:last 0
scalar NClients.r1.ppp[0].queue queueBitLength:max 0
scalar NClients.r1.ppp[0].queue queueBitLength:timeavg 0
scalar NClients.r1.ppp[0].queue outgoingPackets:count 1959
scalar NClients.r1.ppp[0].queue outgoingPacketLengths:sum 626912
scalar NClients.r1.ppp[0].queue incomingPackets:count 1959
scalar NClients.r1.ppp[0].queue incomingPacketLengths:sum 626912
scalar NClients.r1.ppp[0].queue droppedPacketsQueueOverflow:count 0
scalar NClients.r1.ppp[0].queue droppedPacketLengthsQueueOverflow:sum 0
scalar NClients.r1.ppp[0].ppp transmissionState:timeavg 0.0014732319999999626
scalar NClients.r1.ppp[0].ppp rxPkOk:count 1971
scalar NClients.r1.ppp[0].ppp rxPkOk:sum(packetBytes) 1146737
scalar NClients.r1.ppp[0].ppp txPk:count 1959
scalar NClients.r1.ppp[0].ppp txPk:sum(packetBytes) 92077
scalar NClients.r1.ppp[0].ppp rcvdPkFromHl:count 1959
scalar NClients.r1.ppp[0].ppp rcvdPkFromHl:sum(packetBytes) 78364
scalar NClients.r1.ppp[0].ppp passedUpPk:count 1971
scalar NClients.r1.ppp[0].ppp passedUpPk:sum(packetBytes) 1132940
scalar NClients.r1.ppp[0].ppp packetDropIncorrectlyReceived:count 0
scalar NClients.r1.ppp[0].ppp packetDropIncorrectlyReceived:sum(packetBytes) 0
scalar NClients.r1.ppp[0].ppp packetDropInterfaceDown:count 0
scalar NClients.r1.ppp[0].ppp packetDropInterfaceDown:sum(packetBytes) 0
scalar NClients.r1.ppp[0] packetDropInterfaceDown:count 0
scalar NClients.r1.ppp[0] packetDropInterfaceDown:sum(packetBytes) 0
scalar NClients.r1.ppp[0] packetDropNoCarrier:count 0
scalar NClients.r1.ppp[0] packetDropNoCarrier:sum(packetBytes) 0
scalar NClients.r1.ppp[1].queue queueLength:last 0
scalar NClients.r1.ppp[1].queue queueLength:max 0
scalar NClients.r1.ppp[1].queue queueLength:timeavg 0
scalar NClients.r1.ppp[1].queue queueBitLength:last 0
scalar NClients.r1.ppp[1].queue queueBitLength:max 0
scalar NClients.r1.ppp[1].queue queueBitLength:timeavg 0
scalar NClients.r1.ppp[1].queue outgoingPackets:count 1959
scalar NClients.r1.ppp[1].queue outgoingPacketLengths:sum 626912
scalar NClients.r1.ppp[1].queue incomingPackets:count 1959
scalar NClients.r1.ppp[1].queue incomingPacketLengths:sum 626912
scalar NClients.r1.ppp[1].queue droppedPacketsQueueOverflow:count 0
scalar NClients.r1.ppp[1].queue droppedPacketLengthsQueueOverflow:sum 0
scalar NClients.r1.ppp[1].ppp transmissionState:timeavg 0.0014732319999999626
scalar NClients.r1.ppp[1].ppp rxPkOk:count 1961
scalar NClients.r1.ppp[1].ppp rxPkOk:sum(packetBytes) 1141283
scalar NClients.r1.ppp[1].ppp txPk:count 1959
scalar NClients.r1.ppp[1].ppp txPk:sum(packetBytes) 92077
scalar NClients.r1.ppp[1].ppp rcvdPkFromHl:count 1959
scalar NClients.r1.ppp[1].ppp rcvdPkFromHl:sum(packetBytes) 78364
scalar NClients.r1.ppp[1].ppp passedUpPk:count 1961
scalar NClients.r1.ppp[1].ppp passedUpPk:sum(packetBytes) 1127556
scalar NClients.r1.ppp[1].ppp packetDropIncorrectlyReceived:count 0
scalar NClients.r1.ppp[1].ppp packetDropIncorrectlyReceived:sum(packetBytes) 0
scalar NClients.r1.ppp[1].ppp packetDropInterfaceDown:count 0
scalar NClients.r1.ppp[1].ppp packetDropInterfaceDown:sum(packetBytes) 0
scalar NClients.r1.ppp[1] packetDropInterfaceDown:count 0
scalar NClients.r1.ppp[1] packetDropInterfaceDown:sum(packetBytes) 0
scalar NClients.r1.ppp[1] packetDropNoCarrier:count 0
scalar NClients.r1.ppp[1] packetDropNoCarrier:sum(packetBytes) 0
scalar NClients.r1.ppp[2].queue queueLength:last 0
scalar NClients.r1.ppp[2].queue queueLength:max 0
scalar NClients.r1.ppp[2].queue queueLength:timeavg 0
scalar NClients.r1.ppp[2].queue queueBitLength:last 0
scalar NClients.r1.ppp[2].queue queueBitLength:max 0
scalar NClients.r1.ppp[2].queue queueBitLength:timeavg 0
scalar NClients.r1.ppp[2].queue outgoingPackets:count 1959
scalar NClients.r1.ppp[2].queue outgoingPacketLengths:sum 626912
scalar NClients.r1.ppp[2].queue incomingPackets:count 1959
scalar NClients.r1.ppp[2].queue incomingPacketLengths:sum 626912
scalar NClients.r1.ppp[2].queue droppedPacketsQueueOverflow:count 0
scalar NClients.r1.ppp[2].queue droppedPacketLengthsQueueOverflow:sum 0
scalar NClients.r1.ppp[2].ppp transmissionState:timeavg 0.0014732319999999626
scalar NClients.r1.ppp[2].ppp rxPkOk:count 1963
scalar NClients.r1.ppp[2].ppp rxPkOk:sum(packetBytes) 1141917
scalar NClients.r1.ppp[2].ppp txPk:count 1959
scalar NClients.r1.ppp[2].ppp txPk:sum(packetBytes) 92077
scalar NClients.r1.ppp[2].ppp rcvdPkFromHl:count 1959
scalar NClients.r1.ppp[2].ppp rcvdPkFromHl:sum(packetBytes) 78364
scalar NClients.r1.ppp[2].ppp passedUpPk:count 1963
scalar NClients.r1.ppp[2].ppp passedUpPk:sum(packetBytes) 1128176
scalar NClients.r1.ppp[2].ppp packetDropIncorrectlyReceived:count 0
scalar NClients.r1.ppp[2].ppp packetDropIncorrectlyReceived:sum(packetBytes) 0
scalar NClients.r1.ppp[2].ppp packetDropInterfaceDown:count 0
scalar NClients.r1.ppp[2].ppp packetDropInterfaceDown:sum(packetBytes) 0
scalar NClients.r1.ppp[2] packetDropInterfaceDown:count 0
scalar NClients.r1.ppp[2] packetDropInterfaceDown:sum(packetBytes) 0
scalar NClients.r1.ppp[2] packetDropNoCarrier:count 0
scalar NClients.r1.ppp[2] packetDropNoCarrier:sum(packetBytes) 0
scalar NClients.r1.ppp[3].queue queueLength:last 0
scalar NClients.r1.ppp[3].queue queueLength:max 0
scalar NClients.r1.ppp[3].queue queueLength:timeavg 0
scalar NClients.r1.ppp[3].queue queueBitLength:last 0
scalar NClients.r1.ppp[3].queue queueBitLength:max 0
scalar NClients.r1.ppp[3].queue queueBitLength:timeavg 0
scalar NClients.r1.ppp[3].queue outgoingPackets:count 1959
scalar NClients.r1.ppp[3].queue outgoingPacketLengths:sum 626912
scalar NClients.r1.ppp[3].queue incomingPackets:count 1959
scalar NClients.r1.ppp[3].queue incomingPacketLengths:sum 626912
scalar NClients.r1.ppp[3].queue droppedPacketsQueueOverflow:count 0
scalar NClients.r1.ppp[3].queue droppedPacketLengthsQueueOverflow:sum 0
scalar NClients.r1.ppp[3].ppp transmissionState:timeavg 0.0014732319999999626
scalar NClients.r1.ppp[3].ppp rxPkOk:count 1966
scalar NClients.r1.ppp[3].ppp rxPkOk:sum(packetBytes) 1143822
scalar NClients.r1.ppp[3].ppp txPk:count 1959
scalar NClients.r1.ppp[3].ppp txPk:sum(packetBytes) 92077
scalar NClients.r1.ppp[3].ppp rcvdPkFromHl:count 1959
scalar NClients.r1.ppp[3].ppp rcvdPkFromHl:sum(packetBytes) 78364
scalar NClients.r1.ppp[3].ppp passedUpPk:count 1966
scalar NClients.r1.ppp[3].ppp passedUpPk:sum(packetBytes) 1130060
scalar NClients.r1.ppp[3].ppp packetDropIncorrectlyReceived:count 0
scalar NClients.r1.ppp[3].ppp packetDropIncorrectlyReceived:sum(packetBytes) 0
scalar NClients.r1.ppp[3].ppp packetDropInterfaceDown:count 0
scalar NClients.r1.ppp[3].ppp packetDropInterfaceDown:sum(packetBytes) 0
scalar NClients.r1.ppp[3] packetDropInterfaceDown:count 0
scalar NClients.r1.ppp[3] packetDropInterfaceDown:sum(packetBytes) 0
scalar NClients.r1.ppp[3] packetDropNoCarrier:count 0
scalar NClients.r1.ppp[3] packetDropNoCarrier:sum(packetBytes) 0
scalar NClients.r1.ppp[4].queue queueLength:last 0
scalar NClients.r1.ppp[4].queue queueLength:max 0
scalar NClients.r1.ppp[4].queue queueLength:timeavg 0
scalar NClients.r1.ppp[4].queue queueBitLength:last 0
scalar NClients.r1.ppp[4].queue queueBitLength:max 0
scalar NClients.r1.ppp[4].queue queueBitLength:timeavg 0
scalar NClients.r1.ppp[4].queue outgoingPackets:count 1959
scalar NClients.r1.ppp[4].queue outgoingPacketLengths:sum 626912
scalar NClients.r1.ppp[4].queue incomingPackets:count 1959
scalar NClients.r1.ppp[4].queue incomingPacketLengths:sum 626912
scalar NClients.r1.ppp[4].queue droppedPacketsQueueOverflow:count 0
scalar NClients.r1.ppp[4].queue droppedPacketLengthsQueueOverflow:sum 0
scalar NClients.r1.ppp[4].ppp transmissionState:timeavg 0.0014732319999999626
scalar NClients.r1.ppp[4].ppp rxPkOk:count 1972
scalar NClients.r1.ppp[4].ppp rxPkOk:sum(packetBytes) 1147696
scalar NClients.r1.ppp[4].ppp txPk:count 1959
scalar NClients.r1.ppp[4].ppp txPk:sum(packetBytes) 92077
scalar NClients.r1.ppp[4].ppp rcvdPkFromHl:count 1959
scalar NClients.r1.ppp[4].ppp rcvdPkFromHl:sum(packetBytes) 78364
scalar NClients.r1.ppp[4].ppp passedUpPk:count 1972
scalar NClients.r1.ppp[4].ppp passedUpPk:sum(packetBytes) 1133892
scalar NClients.r1.ppp[4].ppp packetDropIncorrectlyReceived:count 0
scalar NClients.r1.ppp[4].ppp packetDropIncorrectlyReceived:sum(packetBytes) 0
scalar NClients.r1.ppp[4].ppp packetDropInterfaceDown:count 0
scalar NClients.r1.ppp[4].ppp packetDropInterfaceDown:sum(packetBytes) 0
scalar NClients.r1.ppp[4] packetDropInterfaceDown:count 0
scalar NClients.r1.ppp[4] packetDropInterfaceDown:sum(packetBytes) 0
scalar NClients.r1.ppp[4] packetDropNoCarrier:count 0
scalar NClients.r1.ppp[4] packetDropNoCarrier:sum(packetBytes) 0
scalar NClients.r1.ppp[5].queue queueLength:last 0
scalar NClients.r1.ppp[5].queue queueLength:max 10
scalar NClients.r1.ppp[5].queue queueLength:timeavg 0.13244717730870581
scalar NClients.r1.ppp[5].queue queueBitLength:last 0
scalar NClients.r1.ppp[5].queue queueBitLength:max 46080
scalar NClients.r1.ppp[5].queue queueBitLength:timeavg 608.55767101284403
scalar NClients.r1.ppp[5].queue outgoingPackets:count 9800
scalar NClients.r1.ppp[5].queue outgoingPacketLengths:sum 45079200
scalar NClients.r1.ppp[5].queue incomingPackets:count 9833
scalar NClients.r1.ppp[5].queue incomingPacketLengths:sum 45220992
scalar NClients.r1.ppp[5].queue droppedPacketsQueueOverflow:count 33
scalar NClients.r1.ppp[5].queue droppedPacketLengthsQueueOverflow:sum 141792
scalar NClients.r1.ppp[5].ppp transmissionState:timeavg 0.09125600000000221
scalar NClients.r1.ppp[5].ppp rxPkOk:count 9795
scalar NClients.r1.ppp[5].ppp rxPkOk:sum(packetBytes) 460385
scalar NClients.r1.ppp[5].ppp txPk:count 9800
scalar NClients.r1.ppp[5].ppp txPk:sum(packetBytes) 5703500
scalar NClients.r1.ppp[5].ppp rcvdPkFromHl:count 9800
scalar NClients.r1.ppp[5].ppp rcvdPkFromHl:sum(packetBytes) 5634900
scalar NClients.r1.ppp[5].ppp passedUpPk:count 9795
scalar NClients.r1.ppp[5].ppp passedUpPk:sum(packetBytes) 391820
scalar NClients.r1.ppp[5].ppp packetDropIncorrectlyReceived:count 0
scalar NClients.r1.ppp[5].ppp packetDropIncorrectlyReceived:sum(packetBytes) 0
scalar NClients.r1.ppp[5].ppp packetDropInterfaceDown:count 0
scalar NClients.r1.ppp[5].ppp packetDropInterfaceDown:sum(packetBytes) 0
scalar NClients.r1.ppp[5] packetDropInterfaceDown:count 0
scalar NClients.r1.ppp[5] packetDropInterfaceDown:sum(packetBytes) 0
scalar NClients.r1.ppp[5] packetDropNoCarrier:count 0
scalar NClients.r1.ppp[5] packetDropNoCarrier:sum(packetBytes) 0
scalar NClients.r1.ipv4.ip packetDropAddressResolutionFailed:count 0
scalar NClients.r1.ipv4.ip packetDropAddressResolutionFailed:sum(packetBytes) 0
scalar NClients.r1.ipv4.ip packetDropHopLimitReached:count 0
scalar NClients.r1.ipv4.ip packetDropHopLimitReached:sum(packetBytes) 0
scalar NClients.r1.ipv4.ip packetDropForwardingDisabled:count 0
scalar NClients.r1.ipv4.ip packetDropForwardingDisabled:sum(packetBytes) 0
scalar NClients.r1.ipv4.ip packetDropLifetimeExpired:count 0
scalar NClients.r1.ipv4.ip packetDropLifetimeExpired:sum(packetBytes) 0
scalar NClients.r1.ipv4.ip packetDropNoInterfaceFound:count 0
scalar NClients.r1.ipv4.ip packetDropNoInterfaceFound:sum(packetBytes) 0
scalar NClients.r1.ipv4.ip packetDropNoRouteFound:count 0
scalar NClients.r1.ipv4.ip packetDropNoRouteFound:sum(packetBytes) 0
scalar NClients.r1.ipv4.ip packetDropUndefined:count 0
scalar NClients.r1.ipv4.ip packetDropUndefined:sum(packetBytes) 0
scalar NClients.r1.ipv4.arp arpResolutionFailed:count 0
scalar NClients.r1.ipv4.arp arpResolutionCompleted:count 0
scalar NClients.r1.ipv4.arp arpResolutionInitiated:count 0
scalar NClients.r1.ipv4.arp arpReplySent:count 0
scalar NClients.r1.ipv4.arp arpReplySent:sum(packetBytes) 0
scalar NClients.r1.ipv4.arp arpRequestSent:count 0
scalar NClients.r1.ipv4.arp arpRequestSent:sum(packetBytes) 0
scalar NClients.r2.lo[0].lo rcvdPkFromHl:count 0
scalar NClients.r2.lo[0].lo rcvdPkFromHl:sum(packetBytes) 0
scalar NClients.r2.lo[0].lo passedUpPk:count 0
scalar NClients.r2.lo[0].lo passedUpPk:sum(packetBytes) 0
scalar NClients.r2.lo[0] packetDropInterfaceDown:count 0
scalar NClients.r2.lo[0] packetDropInterfaceDown:sum(packetBytes) 0
scalar NClients.r2.lo[0] packetDropNoCarrier:count 0
scalar NClients.r2.lo[0] packetDropNoCarrier:sum(packetBytes) 0
scalar NClients.r2.ppp[0].queue queueLength:last 0
scalar NClients.r2.ppp[0].queue queueLength:max 0
scalar NClients.r2.ppp[0].queue queueLength:timeavg 0
scalar NClients.r2.ppp[0].queue queueBitLength:last 0
scalar NClients.r2.ppp[0].queue queueBitLength:max 0
scalar NClients.r2.ppp[0].queue queueBitLength:timeavg 0
scalar NClients.r2.ppp[0].queue outgoingPackets:count 9795
scalar NClients.r2.ppp[0].queue outgoingPacketLengths:sum 3134560
scalar NClients.r2.ppp[0].queue incomingPackets:count 9795
scalar NClients.r2.ppp[0].queue incomingPacketLengths:sum 3134560
scalar NClients.r2.ppp[0].queue droppedPacketsQueueOverflow:count 0
scalar NClients.r2.ppp[0].queue droppedPacketLengthsQueueOverflow:sum 0
scalar NClients.r2.ppp[0].ppp transmissionState:timeavg 0.0073661600000015127
scalar NClients.r2.ppp[0].ppp rxPkOk:count 9800
scalar NClients.r2.ppp[0].ppp rxPkOk:sum(packetBytes) 5703500
scalar NClients.r2.ppp[0].ppp txPk:count 9795
scalar NClients.r2.ppp[0].ppp txPk:sum(packetBytes) 460385
scalar NClients.r2.ppp[0].ppp rcvdPkFromHl:count 9795
scalar NClients.r2.ppp[0].ppp rcvdPkFromHl:sum(packetBytes) 391820
scalar NClients.r2.ppp[0].ppp passedUpPk:count 9800
scalar NClients.r2.ppp[0].ppp passedUpPk:sum(packetBytes) 5634900
scalar NClients.r2.ppp[0].ppp packetDropIncorrectlyReceived:count 0
scalar NClients.r2.ppp[0].ppp packetDropIncorrectlyReceived:sum(packetBytes) 0
scalar NClients.r2.ppp[0].ppp packetDropInterfaceDown:count 0
scalar NClients.r2.ppp[0].ppp packetDropInterfaceDown:sum(packetBytes) 0
scalar NClients.r2.ppp[0] packetDropInterfaceDown:count 0
scalar NClients.r2.ppp[0] packetDropInterfaceDown:sum(packetBytes) 0
scalar NClients.r2.ppp[0] packetDropNoCarrier:count 0
scalar NClients.r2.ppp[0] packetDropNoCarrier:sum(packetBytes) 0
scalar NClients.r2.ppp[1].queue queueLength:last 0
scalar NClients.r2.ppp[1].queue queueLength:max 1
scalar NClients.r2.ppp[1].queue queueLength:timeavg 9.8496e-05
scalar NClients.r2.ppp[1].queue queueBitLength:last 0
scalar NClients.r2.ppp[1].queue queueBitLength:max 1600
scalar NClients.r2.ppp[1].queue queueBitLength:timeavg 0.070838271999999994
scalar NClients.r2.ppp[1].queue outgoingPackets:count 9800
scalar NClients.r2.ppp[1].queue outgoingPacketLengths:sum 45079200
scalar NClients.r2.ppp[1].queue incomingPackets:count 9800
scalar NClients.r2.ppp[1].queue incomingPacketLengths:sum 45079200
scalar NClients.r2.ppp[1].queue droppedPacketsQueueOverflow:count 0
scalar NClients.r2.ppp[1].queue droppedPacketLengthsQueueOverflow:sum 0
scalar NClients.r2.ppp[1].ppp transmissionState:timeavg 0.09125600000000221
scalar NClients.r2.ppp[1].ppp rxPkOk:count 9795
scalar NClients.r2.ppp[1].ppp rxPkOk:sum(packetBytes) 460385
scalar NClients.r2.ppp[1].ppp txPk:count 9800
scalar NClients.r2.ppp[1].ppp txPk:sum(packetBytes) 5703500
scalar NClients.r2.ppp[1].ppp rcvdPkFromHl:count 9800
scalar NClients.r2.ppp[1].ppp rcvdPkFromHl:sum(packetBytes) 5634900
scalar NClients.r2.ppp[1].ppp passedUpPk:count 9795
scalar NClients.r2.ppp[1].ppp passedUpPk:sum(packetBytes) 391820
scalar NClients.r2.ppp[1].ppp packetDropIncorrectlyReceived:count 0
scalar NClients.r2.ppp[1].ppp packetDropIncorrectlyReceived:sum(packetBytes) 0
scalar NClients.r2.ppp[1].ppp packetDropInterfaceDown:count 0
scalar NClients.r2.ppp[1].ppp packetDropInterfaceDown:sum(packetBytes) 0
scalar NClients.r2.ppp[1] packetDropInterfaceDown:count 0
scalar NClients.r2.ppp[1] packetDropInterfaceDown:sum(packetBytes) 0
scalar NClients.r2.ppp[1] packetDropNoCarrier:count 0
scalar NClients.r2.ppp[1] packetDropNoCarrier:sum(packetBytes) 0
scalar NClients.r2.ipv4.ip packetDropAddressResolutionFailed:count 0
scalar NClients.r2.ipv4.ip packetDropAddressResolutionFailed:sum(packetBytes) 0
scalar NClients.r2.ipv4.ip packetDropHopLimitReached:count 0
scalar NClients.r2.ipv4.ip packetDropHopLimitReached:sum(packetBytes) 0
scalar NClients.r2.ipv4.ip packetDropForwardingDisabled:count 0
scalar NClients.r2.ipv4.ip packetDropForwardingDisabled:sum(packetBytes) 0
scalar NClients.r2.ipv4.ip packetDropLifetimeExpired:count 0
scalar NClients.r2.ipv4.ip packetDropLifetimeExpired:sum(packetBytes) 0
scalar NClients.r2.ipv4.ip packetDropNoInterfaceFound:count 0
scalar NClients.r2.ipv4.ip packetDropNoInterfaceFound:sum(packetBytes) 0
scalar NClients.r2.ipv4.ip packetDropNoRouteFound:count 0
scalar NClients.r2.ipv4.ip packetDropNoRouteFound:sum(packetBytes) 0
scalar NClients.r2.ipv4.ip packetDropUndefined:count 0
scalar NClients.r2.ipv4.ip packetDropUndefined:sum(packetBytes) 0
scalar NClients.r2.ipv4.arp arpResolutionFailed:count 0
scalar NClients.r2.ipv4.arp arpResolutionCompleted:count 0
scalar NClients.r2.ipv4.arp arpResolutionInitiated:count 0
scalar NClients.r2.ipv4.arp arpReplySent:count 0
scalar NClients.r2.ipv4.arp arpReplySent:sum(packetBytes) 0
scalar NClients.r2.ipv4.arp arpRequestSent:count 0
scalar NClients.r2.ipv4.arp arpRequestSent:sum(packetBytes) 0
scalar NClients.r3.lo[0].lo rcvdPkFromHl:count 0
scalar NClients.r3.lo[0].lo rcvdPkFromHl:sum(packetBytes) 0
scalar NClients.r3.lo[0].lo passedUpPk:count 0
scalar NClients.r3.lo[0].lo passedUpPk:sum(packetBytes) 0
scalar NClients.r3.lo[0] packetDropInterfaceDown:count 0
scalar NClients.r3.lo[0] packetDropInterfaceDown:sum(packetBytes) 0
scalar NClients.r3.lo[0] packetDropNoCarrier:count 0
scalar NClients.r3.lo[0] packetDropNoCarrier:sum(packetBytes) 0
scalar NClients.r3.ppp[0].queue queueLength:last 0
scalar NClients.r3.ppp[0].queue queueLength:max 0
scalar NClients.r3.ppp[0].queue queueLength:timeavg 0
scalar NClients.r3.ppp[0].queue queueBitLength:last 0
scalar NClients.r3.ppp[0].queue queueBitLength:max 0
scalar NClients.r3.ppp[0].queue queueBitLength:timeavg 0
scalar NClients.r3.ppp[0].queue outgoingPackets:count 9795
scalar NClients.r3.ppp[0].queue outgoingPacketLengths:sum 3134560
scalar NClients.r3.ppp[0].queue incomingPackets:count 9795
scalar NClients.r3.ppp[0].queue incomingPacketLengths:sum 3134560
scalar NClients.r3.ppp[0].queue droppedPacketsQueueOverflow:count 0
scalar NClients.r3.ppp[0].queue droppedPacketLengthsQueueOverflow:sum 0
scalar NClients.r3.ppp[0].ppp transmissionState:timeavg 0.0073661600000015127
scalar NClients.r3.ppp[0].ppp rxPkOk:count 9800
scalar NClients.r3.ppp[0].ppp rxPkOk:sum(packetBytes) 5703500
scalar NClients.r3.ppp[0].ppp txPk:count 9795
scalar NClients.r3.ppp[0].ppp txPk:sum(packetBytes) 460385
scalar NClients.r3.ppp[0].ppp rcvdPkFromHl:count 9795
scalar NClients.r3.ppp[0].ppp rcvdPkFromHl:sum(packetBytes) 391820
scalar NClients.r3.ppp[0].ppp passedUpPk:count 9800
scalar NClients.r3.ppp[0].ppp passedUpPk:sum(packetBytes) 5634900
scalar NClients.r3.ppp[0].ppp packetDropIncorrectlyReceived:count 0
scalar NClients.r3.ppp[0].ppp packetDropIncorrectlyReceived:sum(packetBytes) 0
scalar NClients.r3.ppp[0].ppp packetDropInterfaceDown:count 0
scalar NClients.r3.ppp[0].ppp packetDropInterfaceDown:sum(packetBytes) 0
scalar NClients.r3.ppp[0] packetDropInterfaceDown:count 0
scalar NClients.r3.ppp[0] packetDropInterfaceDown:sum(packetBytes) 0
scalar NClients.r3.ppp[0] packetDropNoCarrier:count 0
scalar NClients.r3.ppp[0] packetDropNoCarrier:sum(packetBytes) 0
scalar NClients.r3.ppp[1].queue queueLength:last 0
scalar NClients.r3.ppp[1].queue queueLength:max 1
scalar NClients.r3.ppp[1].queue queueLength:timeavg 9.8496e-05
scalar NClients.r3.ppp[1].queue queueBitLength:last 0
scalar NClients.r3.ppp[1].queue queueBitLength:max 1600
scalar NClients.r3.ppp[1].queue queueBitLength:timeavg 0.070838271999999994
scalar NClients.r3.ppp[1].queue outgoingPackets:count 9800
scalar NClients.r3.ppp[1].queue outgoingPacketLengths:sum 45079200
scalar NClients.r3.ppp[1].queue incomingPackets:count 9800
scalar NClients.r3.ppp[1].queue incomingPacketLengths:sum 45079200
scalar NClients.r3.ppp[1].queue droppedPacketsQueueOverflow:count 0
scalar NClients.r3.ppp[1].queue droppedPacketLengthsQueueOverflow:sum 0
scalar NClients.r3.ppp[1].ppp transmissionState:timeavg 0.09125600000000221
scalar NClients.r3.ppp[1].ppp rxPkOk:count 9795
scalar NClients.r3.ppp[1].ppp rxPkOk:sum(packetBytes) 460385
scalar NClients.r3.ppp[1].ppp txPk:count 9800
scalar NClients.r3.ppp[1].ppp txPk:sum(packetBytes) 5703500
scalar NClients.r3.ppp[1].ppp rcvdPkFromHl:count 9800
scalar NClients.r3.ppp[1].ppp rcvdPkFromHl:sum(packetBytes) 5634900
scalar NClients.r3.ppp[1].ppp passedUpPk:count 9795
scalar NClients.r3.ppp[1].ppp passedUpPk:sum(packetBytes) 391820
scalar NClients.r3.ppp[1].ppp packetDropIncorrectlyReceived:count 0
scalar NClients.r3.ppp[1].ppp packetDropIncorrectlyReceived:sum(packetBytes) 0
scalar NClients.r3.ppp[1].ppp packetDropInterfaceDown:count 0
scalar NClients.r3.ppp[1].ppp packetDropInterfaceDown:sum(packetBytes) 0
scalar NClients.r3.ppp[1] packetDropInterfaceDown:count 0
scalar NClients.r3.ppp[1] packetDropInterfaceDown:sum(packetBytes) 0
scalar NClients.r3.ppp[1] packetDropNoCarrier:count 0
scalar NClients.r3.ppp[1] packetDropNoCarrier:sum(packetBytes) 0
scalar NClients.r3.ipv4.ip packetDropAddressResolutionFailed:count 0
scalar NClients.r3.ipv4.ip packetDropAddressResolutionFailed:sum(packetBytes) 0
scalar NClients.r3.ipv4.ip packetDropHopLimitReached:count 0
scalar NClients.r3.ipv4.ip packetDropHopLimitReached:sum(packetBytes) 0
scalar NClients.r3.ipv4.ip packetDropForwardingDisabled:count 0
scalar NClients.r3.ipv4.ip packetDropForwardingDisabled:sum(packetBytes) 0
scalar NClients.r3.ipv4.ip packetDropLifetimeExpired:count 0
scalar NClients.r3.ipv4.ip packetDropLifetimeExpired:sum(packetBytes) 0
scalar NClients.r3.ipv4.ip packetDropNoInterfaceFound:count 0
scalar NClients.r3.ipv4.ip packetDropNoInterfaceFound:sum(packetBytes) 0
scalar NClients.r3.ipv4.ip packetDropNoRouteFound:count 0
scalar NClients.r3.ipv4.ip packetDropNoRouteFound:sum(packetBytes) 0
scalar NClients.r3.ipv4.ip packetDropUndefined:count 0
scalar NClients.r3.ipv4.ip packetDropUndefined:sum(packetBytes) 0
scalar NClients.r3.ipv4.arp arpResolutionFailed:count 0
scalar NClients.r3.ipv4.arp arpResolutionCompleted:count 0
scalar NClients.r3.ipv4.arp arpResolutionInitiated:count 0
scalar NClients.r3.ipv4.arp arpReplySent:count 0
scalar NClients.r3.ipv4.arp arpReplySent:sum(packetBytes) 0
scalar NClients.r3.ipv4.arp arpRequestSent:count 0
scalar NClients.r3.ipv4.arp arpRequestSent:sum(packetBytes) 0
scalar NClients.cli[0].lo[0].lo rcvdPkFromHl:count 0
scalar NClients.cli[0].lo[0].lo rcvdPkFromHl:sum(packetBytes) 0
scalar NClients.cli[0].lo[0].lo passedUpPk:count 0
scalar NClients.cli[0].lo[0].lo passedUpPk:sum(packetBytes) 0
scalar NClients.cli[0].lo[0] packetDropInterfaceDown:count 0
scalar NClients.cli[0].lo[0] packetDropInterfaceDown:sum(packetBytes) 0
scalar NClients.cli[0].lo[0] packetDropNoCarrier:count 0
scalar NClients.cli[0].lo[0] packetDropNoCarrier:sum(packetBytes) 0
scalar NClients.cli[0].ppp[0].queue queueLength:last 0
scalar NClients.cli[0].ppp[0].queue queueLength:max 10
scalar NClients.cli[0].ppp[0].queue queueLength:timeavg 0.12993433599999782
scalar NClients.cli[0].ppp[0].queue queueBitLength:last 0
scalar NClients.cli[0].ppp[0].queue queueBitLength:max 46080
scalar NClients.cli[0].ppp[0].queue queueBitLength:timeavg 598.73742028799052
scalar NClients.cli[0].ppp[0].queue outgoingPackets:count 1971
scalar NClients.cli[0].ppp[0].queue outgoingPacketLengths:sum 9063520
scalar NClients.cli[0].ppp[0].queue incomingPackets:count 1971
scalar NClients.cli[0].ppp[0].queue incomingPacketLengths:sum 9063520
scalar NClients.cli[0].ppp[0].queue droppedPacketsQueueOverflow:count 0
scalar NClients.cli[0].ppp[0].queue droppedPacketLengthsQueueOverflow:sum 0
scalar NClients.cli[0].ppp[0].ppp transmissionState:timeavg 0.018347791999999412
scalar NClients.cli[0].ppp[0].ppp rxPkOk:count 1959
scalar NClients.cli[0].ppp[0].ppp rxPkOk:sum(packetBytes) 92077
scalar NClients.cli[0].ppp[0].ppp txPk:count 1971
scalar NClients.cli[0].ppp[0].ppp txPk:sum(packetBytes) 1146737
scalar NClients.cli[0].ppp[0].ppp rcvdPkFromHl:count 1971
scalar NClients.cli[0].ppp[0].ppp rcvdPkFromHl:sum(packetBytes) 1132940
scalar NClients.cli[0].ppp[0].ppp passedUpPk:count 1959
scalar NClients.cli[0].ppp[0].ppp passedUpPk:sum(packetBytes) 78364
scalar NClients.cli[0].ppp[0].ppp packetDropIncorrectlyReceived:count 0
scalar NClients.cli[0].ppp[0].ppp packetDropIncorrectlyReceived:sum(packetBytes) 0
scalar NClients.cli[0].ppp[0].ppp packetDropInterfaceDown:count 0
scalar NClients.cli[0].ppp[0].ppp packetDropInterfaceDown:sum(packetBytes) 0
scalar NClients.cli[0].ppp[0] packetDropInterfaceDown:count 0
scalar NClients.cli[0].ppp[0] packetDropInterfaceDown:sum(packetBytes) 0
scalar NClients.cli[0].ppp[0] packetDropNoCarrier:count 0
scalar NClients.cli[0].ppp[0] packetDropNoCarrier:sum(packetBytes) 0
scalar NClients.cli[0].ipv4.ip packetDropAddressResolutionFailed:count 0
scalar NClients.cli[0].ipv4.ip packetDropAddressResolutionFailed:sum(packetBytes) 0
scalar NClients.cli[0].ipv4.ip packetDropHopLimitReached:count 0
scalar NClients.cli[0].ipv4.ip packetDropHopLimitReached:sum(packetBytes) 0
scalar NClients.cli[0].ipv4.ip packetDropForwardingDisabled:count 0
scalar NClients.cli[0].ipv4.ip packetDropForwardingDisabled:sum(packetBytes) 0
scalar NClients.cli[0].ipv4.ip packetDropLifetimeExpired:count 0
scalar NClients.cli[0].ipv4.ip packetDropLifetimeExpired:sum(packetBytes) 0
scalar NClients.cli[0].ipv4.ip packetDropNoInterfaceFound:count 0
scalar NClients.cli[0].ipv4.ip packetDropNoInterfaceFound:sum(packetBytes) 0
scalar NClients.cli[0].ipv4.ip packetDropNoRouteFound:count 0
scalar NClients.cli[0].ipv4.ip packetDropNoRouteFound:sum(packetBytes) 0
scalar NClients.cli[0].ipv4.ip packetDropUndefined:count 0
scalar NClients.cli[0].ipv4.ip packetDropUndefined:sum(packetBytes) 0
scalar NClients.cli[0].ipv4.arp arpResolutionFailed:count 0
scalar NClients.cli[0].ipv4.arp arpResolutionCompleted:count 0
scalar NClients.cli[0].ipv4.arp arpResolutionInitiated:count 0
scalar NClients.cli[0].ipv4.arp arpReplySent:count 0
scalar NClients.cli[0].ipv4.arp arpReplySent:sum(packetBytes) 0
scalar NClients.cli[0].ipv4.arp arpRequestSent:count 0
scalar NClients.cli[0].ipv4.arp arpRequestSent:sum(packetBytes) 0
scalar NClients.cli[0].udp packetReceived:count 0
scalar NClients.cli[0].udp packetReceived:sum(packetBytes) 0
scalar NClients.cli[0].udp packetSent:count 0
scalar NClients.cli[0].udp packetSent:sum(packetBytes) 0
scalar NClients.cli[0].udp passedUpPk:count 0
scalar NClients.cli[0].udp droppedPkWrongPort:count 0
scalar NClients.cli[0].udp droppedPkBadChecksum:count 0
scalar NClients.cli[0].app[0] bytesRcvd 0
scalar NClients.cli[0].app[0] bytesSent 1048576
scalar NClients.cli[0].app[0] packetReceived:count 0
scalar NClients.cli[0].app[0] packetReceived:sum(packetBytes) 0
scalar NClients.cli[0].app[0] packetSent:count 1
scalar NClients.cli[0].app[0] packetSent:sum(packetBytes) 1048576
scalar NClients.cli[1].lo[0].lo rcvdPkFromHl:count 0
scalar NClients.cli[1].lo[0].lo rcvdPkFromHl:sum(packetBytes) 0
scalar NClients.cli[1].lo[0].lo passedUpPk:count 0
scalar NClients.cli[1].lo[0].lo passedUpPk:sum(packetBytes) 0
scalar NClients.cli[1].lo[0] packetDropInterfaceDown:count 0
scalar NClients.cli[1].lo[0] packetDropInterfaceDown:sum(packetBytes) 0
scalar NClients.cli[1].lo[0] packetDropNoCarrier:count 0
scalar NClients.cli[1].lo[0] packetDropNoCarrier:sum(packetBytes) 0
scalar NClients.cli[1].ppp[0].queue queueLength:last 0
scalar NClients.cli[1].ppp[0].queue queueLength:max 10
scalar NClients.cli[1].ppp[0].queue queueLength:timeavg 0.15642854399999556
scalar NClients.cli[1].ppp[0].queue queueBitLength:last 0
scalar NClients.cli[1].ppp[0].queue queueBitLength:max 46080
scalar NClients.cli[1].ppp[0].queue queueBitLength:timeavg 720.55124070399393
scalar NClients.cli[1].ppp[0].queue outgoingPackets:count 1961
scalar NClients.cli[1].ppp[0].queue outgoingPacketLengths:sum 9020448
scalar NClients.cli[1].ppp[0].queue incomingPackets:count 1961
scalar NClients.cli[1].ppp[0].queue incomingPacketLengths:sum 9020448
scalar NClients.cli[1].ppp[0].queue droppedPacketsQueueOverflow:count 0
scalar NClients.cli[1].ppp[0].queue droppedPacketLengthsQueueOverflow:sum 0
scalar NClients.cli[1].ppp[0].ppp transmissionState:timeavg 0.018260527999999415
scalar NClients.cli[1].ppp[0].ppp rxPkOk:count 1959
scalar NClients.cli[1].ppp[0].ppp rxPkOk:sum(packetBytes) 92077
scalar NClients.cli[1].ppp[0].ppp txPk:count 1961
scalar NClients.cli[1].ppp[0].ppp txPk:sum(packetBytes) 1141283
scalar NClients.cli[1].ppp[0].ppp rcvdPkFromHl:count 1961
scalar NClients.cli[1].ppp[0].ppp rcvdPkFromHl:sum(packetBytes) 1127556
scalar NClients.cli[1].ppp[0].ppp passedUpPk:count 1959
scalar NClients.cli[1].ppp[0].ppp passedUpPk:sum(packetBytes) 78364
scalar NClients.cli[1].ppp[0].ppp packetDropIncorrectlyReceived:count 0
scalar NClients.cli[1].ppp[0].ppp packetDropIncorrectlyReceived:sum(packetBytes) 0
scalar NClients.cli[1].ppp[0].ppp packetDropInterfaceDown:count 0
scalar NClients.cli[1].ppp[0].ppp packetDropInterfaceDown:sum(packetBytes) 0
scalar NClients.cli[1].ppp[0] packetDropInterfaceDown:count 0
scalar NClients.cli[1].ppp[0] packetDropInterfaceDown:sum(packetBytes) 0
scalar NClients.cli[1].ppp[0] packetDropNoCarrier:count 0
scalar NClients.cli[1].ppp[0] packetDropNoCarrier:sum(packetBytes) 0
scalar NClients.cli[1].ipv4.ip packetDropAddressResolutionFailed:count 0
scalar NClients.cli[1].ipv4.ip packetDropAddressResolutionFailed:sum(packetBytes) 0
scalar NClients.cli[1].ipv4.ip packetDropHopLimitReached:count 0
scalar NClients.cli[1].ipv4.ip packetDropHopLimitReached:sum(packetBytes) 0
scalar NClients.cli[1].ipv4.ip packetDropForwardingDisabled:count 0
scalar NClients.cli[1].ipv4.ip packetDropForwardingDisabled:sum(packetBytes) 0
scalar NClients.cli[1].ipv4.ip packetDropLifetimeExpired:count 0
scalar NClients.cli[1].ipv4.ip packetDropLifetimeExpired:sum(packetBytes) 0
scalar NClients.cli[1].ipv4.ip packetDropNoInterfaceFound:count 0
scalar NClients.cli[1].ipv4.ip packetDropNoInterfaceFound:sum(packetBytes) 0
scalar NClients.cli[1].ipv4.ip packetDropNoRouteFound:count 0
scalar NClients.cli[1].ipv4.ip packetDropNoRouteFound:sum(packetBytes) 0
scalar NClients.cli[1].ipv4.ip packetDropUndefined:count 0
scalar NClients.cli[1].ipv4.ip packetDropUndefined:sum(packetBytes) 0
scalar NClients.cli[1].ipv4.arp arpResolutionFailed:count 0
scalar NClients.cli[1].ipv4.arp arpResolutionCompleted:count 0
scalar NClients.cli[1].ipv4.arp arpResolutionInitiated:count 0
scalar NClients.cli[1].ipv4.arp arpReplySent:count 0
scalar NClients.cli[1].ipv4.arp arpReplySent:sum(packetBytes) 0
scalar NClients.cli[1].ipv4.arp arpRequestSent:count 0
scalar NClients.cli[1].ipv4.arp arpRequestSent:sum(packetBytes) 0
scalar NClients.cli[1].udp packetReceived:count 0
scalar NClients.cli[1].udp packetReceived:sum(packetBytes) 0
scalar NClients.cli[1].udp packetSent:count 0
scalar NClients.cli[1].udp packetSent:sum(packetBytes) 0
scalar NClients.cli[1].udp passedUpPk:count 0
scalar NClients.cli[1].udp droppedPkWrongPort:count 0
scalar NClients.cli[1].udp droppedPkBadChecksum:count 0
scalar NClients.cli[1].app[0] bytesRcvd 0
scalar NClients.cli[1].app[0] bytesSent 1048576
scalar NClients.cli[1].app[0] packetReceived:count 0
scalar NClients.cli[1].app[0] packetReceived:sum(packetBytes) 0
scalar NClients.cli[1].app[0] packetSent:count 1
scalar NClients.cli[1].app[0] packetSent:sum(packetBytes) 1048576
scalar NClients.cli[2].lo[0].lo rcvdPkFromHl:count 0
scalar NClients.cli[2].lo[0].lo rcvdPkFromHl:sum(packetBytes) 0
scalar NClients.cli[2].lo[0].lo passedUpPk:count 0
scalar NClients.cli[2].lo[0].lo passedUpPk:sum(packetBytes) 0
scalar NClients.cli[2].lo[0] packetDropInterfaceDown:count 0
scalar NClients.cli[2].lo[0] packetDropInterfaceDown:sum(packetBytes) 0
scalar NClients.cli[2].lo[0] packetDropNoCarrier:count 0
scalar NClients.cli[2].lo[0] packetDropNoCarrier:sum(packetBytes) 0
scalar NClients.cli[2].ppp[0].queue queueLength:last 0
scalar NClients.cli[2].ppp[0].queue queueLength:max 10
scalar NClients.cli[2].ppp[0].queue queueLength:timeavg 0.13672177599999696
scalar NClients.cli[2].ppp[0].queue queueBitLength:last 0
scalar NClients.cli[2].ppp[0].queue queueBitLength:max 46080
scalar NClients.cli[2].ppp[0].queue queueBitLength:timeavg 629.7424537599876
scalar NClients.cli[2].ppp[0].queue outgoingPackets:count 1963
scalar NClients.cli[2].ppp[0].queue outgoingPacketLengths:sum 9025408
scalar NClients.cli[2].ppp[0].queue incomingPackets:count 1963
scalar NClients.cli[2].ppp[0].queue incomingPacketLengths:sum 9025408
scalar NClients.cli[2].ppp[0].queue droppedPacketsQueueOverflow:count 0
scalar NClients.cli[2].ppp[0].queue droppedPacketLengthsQueueOverflow:sum 0
scalar NClients.cli[2].ppp[0].ppp transmissionState:timeavg 0.018270671999999415
scalar NClients.cli[2].ppp[0].ppp rxPkOk:count 1959
scalar NClients.cli[2].ppp[0].ppp rxPkOk:sum(packetBytes) 92077
scalar NClients.cli[2].ppp[0].ppp txPk:count 1963
scalar NClients.cli[2].ppp[0].ppp txPk:sum(packetBytes) 1141917
scalar NClients.cli[2].ppp[0].ppp rcvdPkFromHl:count 1963
scalar NClients.cli[2].ppp[0].ppp rcvdPkFromHl:sum(packetBytes) 1128176
scalar NClients.cli[2].ppp[0].ppp passedUpPk:count 1959
scalar NClients.cli[2].ppp[0].ppp passedUpPk:sum(packetBytes) 78364
scalar NClients.cli[2].ppp[0].ppp packetDropIncorrectlyReceived:count 0
scalar NClients.cli[2].ppp[0].ppp packetDropIncorrectlyReceived:sum(packetBytes) 0
scalar NClients.cli[2].ppp[0].ppp packetDropInterfaceDown:count 0
scalar NClients.cli[2].ppp[0].ppp packetDropInterfaceDown:sum(packetBytes) 0
scalar NClients.cli[2].ppp[0] packetDropInterfaceDown:count 0
scalar NClients.cli[2].ppp[0] packetDropInterfaceDown:sum(packetBytes) 0
scalar NClients.cli[2].ppp[0] packetDropNoCarrier:count 0
scalar NClients.cli[2].ppp[0] packetDropNoCarrier:sum(packetBytes) 0
scalar NClients.cli[2].ipv4.ip packetDropAddressResolutionFailed:count 0
scalar NClients.cli[2].ipv4.ip packetDropAddressResolutionFailed:sum(packetBytes) 0
scalar NClients.cli[2].ipv4.ip packetDropHopLimitReached:count 0
scalar NClients.cli[2].ipv4.ip packetDropHopLimitReached:sum(packetBytes) 0
scalar NClients.cli[2].ipv4.ip packetDropForwardingDisabled:count 0
scalar NClients.cli[2].ipv4.ip packetDropForwardingDisabled:sum(packetBytes) 0
scalar NClients.cli[2].ipv4.ip packetDropLifetimeExpired:count 0
scalar NClients.cli[2].ipv4.ip packetDropLifetimeExpired:sum(packetBytes) 0
scalar NClients.cli[2].ipv4.ip packetDropNoInterfaceFound:count 0
scalar NClients.cli[2].ipv4.ip packetDropNoInterfaceFound:sum(packetBytes) 0
scalar NClients.cli[2].ipv4.ip packetDropNoRouteFound:count 0
scalar NClients.cli[2].ipv4.ip packetDropNoRouteFound:sum(packetBytes) 0
scalar NClients.cli[2].ipv4.ip packetDropUndefined:count 0
scalar NClients.cli[2].ipv4.ip packetDropUndefined:sum(packetBytes) 0
scalar NClients.cli[2].ipv4.arp arpResolutionFailed:count 0
scalar NClients.cli[2].ipv4.arp arpResolutionCompleted:count 0
scalar NClients.cli[2].ipv4.arp arpResolutionInitiated:count 0
scalar NClients.cli[2].ipv4.arp arpReplySent:count 0
scalar NClients.cli[2].ipv4.arp arpReplySent:sum(packetBytes) 0
scalar NClients.cli[2].ipv4.arp arpRequestSent:count 0
scalar NClients.cli[2].ipv4.arp arpRequestSent:sum(packetBytes) 0
scalar NClients.cli[2].udp packetReceived:count 0
scalar NClients.cli[2].udp packetReceived:sum(packetBytes) 0
scalar NClients.cli[2].udp packetSent:count 0
scalar NClients.cli[2].udp packetSent:sum(packetBytes) 0
scalar NClients.cli[2].udp passedUpPk:count 0
scalar NClients.cli[2].udp droppedPkWrongPort:count 0
scalar NClients.cli[2].udp droppedPkBadChecksum:count 0
scalar NClients.cli[2].app[0] bytesRcvd 0
scalar NClients.cli[2].app[0] bytesSent 1048576
scalar NClients.cli[2].app[0] packetReceived:count 0
scalar NClients.cli[2].app[0] packetReceived:sum(packetBytes) 0
scalar NClients.cli[2].app[0] packetSent:count 1
scalar NClients.cli[2].app[0] packetSent:sum(packetBytes) 1048576
scalar NClients.cli[3].lo[0].lo rcvdPkFromHl:count 0
scalar NClients.cli[3].lo[0].lo rcvdPkFromHl:sum(packetBytes) 0
scalar NClients.cli[3].lo[0].lo passedUpPk:count 0
scalar NClients.cli[3].lo[0].lo passedUpPk:sum(packetBytes) 0
scalar NClients.cli[3].lo[0] packetDropInterfaceDown:count 0
scalar NClients.cli[3].lo[0] packetDropInterfaceDown:sum(packetBytes) 0
scalar NClients.cli[3].lo[0] packetDropNoCarrier:count 0
scalar NClients.cli[3].lo[0] packetDropNoCarrier:sum(packetBytes) 0
scalar NClients.cli[3].ppp[0].queue queueLength:last 0
scalar NClients.cli[3].ppp[0].queue queueLength:max 10
scalar NClients.cli[3].ppp[0].queue queueLength:timeavg 0.14278127999999682
scalar NClients.cli[3].ppp[0].queue queueBitLength:last 0
scalar NClients.cli[3].ppp[0].queue queueBitLength:max 46080
scalar NClients.cli[3].ppp[0].queue queueBitLength:timeavg 657.9361382399868
scalar NClients.cli[3].ppp[0].queue outgoingPackets:count 1966
scalar NClients.cli[3].ppp[0].queue outgoingPacketLengths:sum 9040480
scalar NClients.cli[3].ppp[0].queue incomingPackets:count 1966
scalar NClients.cli[3].ppp[0].queue incomingPacketLengths:sum 9040480
scalar NClients.cli[3].ppp[0].queue droppedPacketsQueueOverflow:count 0
scalar NClients.cli[3].ppp[0].queue droppedPacketLengthsQueueOverflow:sum 0
scalar NClients.cli[3].ppp[0].ppp transmissionState:timeavg 0.018301151999999415
scalar NClients.cli[3].ppp[0].ppp rxPkOk:count 1959
scalar NClients.cli[3].ppp[0].ppp rxPkOk:sum(packetBytes) 92077
scalar NClients.cli[3].ppp[0].ppp txPk:count 1966
scalar NClients.cli[3].ppp[0].ppp txPk:sum(packetBytes) 1143822
scalar NClients.cli[3].ppp[0].ppp rcvdPkFromHl:count 1966
scalar NClients.cli[3].ppp[0].ppp rcvdPkFromHl:sum(packetBytes) 1130060
scalar NClients.cli[3].ppp[0].ppp passedUpPk:count 1959
scalar NClients.cli[3].ppp[0].ppp passedUpPk:sum(packetBytes) 78364
scalar NClients.cli[3].ppp[0].ppp packetDropIncorrectlyReceived:count 0
scalar NClients.cli[3].ppp[0].ppp packetDropIncorrectlyReceived:sum(packetBytes) 0
scalar NClients.cli[3].ppp[0].ppp packetDropInterfaceDown:count 0
scalar NClients.cli[3].ppp[0].ppp packetDropInterfaceDown:sum(packetBytes) 0
scalar NClients.cli[3].ppp[0] packetDropInterfaceDown:count 0
scalar NClients.cli[3].ppp[0] packetDropInterfaceDown:sum(packetBytes) 0
scalar NClients.cli[3].ppp[0] packetDropNoCarrier:count 0
scalar NClients.cli[3].ppp[0] packetDropNoCarrier:sum(packetBytes) 0
scalar NClients.cli[3].ipv4.ip packetDropAddressResolutionFailed:count 0
scalar NClients.cli[3].ipv4.ip packetDropAddressResolutionFailed:sum(packetBytes) 0
scalar NClients.cli[3].ipv4.ip packetDropHopLimitReached:count 0
scalar NClients.cli[3].ipv4.ip packetDropHopLimitReached:sum(packetBytes) 0
scalar NClients.cli[3].ipv4.ip packetDropForwardingDisabled:count 0
scalar NClients.cli[3].ipv4.ip packetDropForwardingDisabled:sum(packetBytes) 0
scalar NClients.cli[3].ipv4.ip packetDropLifetimeExpired:count 0
scalar NClients.cli[3].ipv4.ip packetDropLifetimeExpired:sum(packetBytes) 0
scalar NClients.cli[3].ipv4.ip packetDropNoInterfaceFound:count 0
scalar NClients.cli[3].ipv4.ip packetDropNoInterfaceFound:sum(packetBytes) 0
scalar NClients.cli[3].ipv4.ip packetDropNoRouteFound:count 0
scalar NClients.cli[3].ipv4.ip packetDropNoRouteFound:sum(packetBytes) 0
scalar NClients.cli[3].ipv4.ip packetDropUndefined:count 0
scalar NClients.cli[3].ipv4.ip packetDropUndefined:sum(packetBytes) 0
scalar NClients.cli[3].ipv4.arp arpResolutionFailed:count 0
scalar NClients.cli[3].ipv4.arp arpResolutionCompleted:count 0
scalar NClients.cli[3].ipv4.arp arpResolutionInitiated:count 0
scalar NClients.cli[3].ipv4.arp arpReplySent:count 0
scalar NClients.cli[3].ipv4.arp arpReplySent:sum(packetBytes) 0
scalar NClients.cli[3].ipv4.arp arpRequestSent:count 0
scalar NClients.cli[3].ipv4.arp arpRequestSent:sum(packetBytes) 0
scalar NClients.cli[3].udp packetReceived:count 0
scalar NClients.cli[3].udp packetReceived:sum(packetBytes) 0
scalar NClients.cli[3].udp packetSent:count 0
scalar NClients.cli[3].udp packetSent:sum(packetBytes) 0
scalar NClients.cli[3].udp passedUpPk:count 0
scalar NClients.cli[3].udp droppedPkWrongPort:count 0
scalar NClients.cli[3].udp droppedPkBadChecksum:count 0
scalar NClients.cli[3].app[0] bytesRcvd 0
scalar NClients.cli[3].app[0] bytesSent 1048576
scalar NClients.cli[3].app[0] packetReceived:count 0
scalar NClients.cli[3].app[0] packetReceived:sum(packetBytes) 0
scalar NClients.cli[3].app[0] packetSent:count 1
scalar NClients.cli[3].app[0] packetSent:sum(packetBytes) 1048576
scalar NClients.cli[4].lo[0].lo rcvdPkFromHl:count 0
scalar NClients.cli[4].lo[0].lo rcvdPkFromHl:sum(packetBytes) 0
scalar NClients.cli[4].lo[0].lo passedUpPk:count 0
scalar NClients.cli[4].lo[0].lo passedUpPk:sum(packetBytes) 0
scalar NClients.cli[4].lo[0] packetDropInterfaceDown:count 0
scalar NClients.cli[4].lo[0] packetDropInterfaceDown:sum(packetBytes) 0
scalar NClients.cli[4].lo[0] packetDropNoCarrier:count 0
scalar NClients.cli[4].lo[0] packetDropNoCarrier:sum(packetBytes) 0
scalar NClients.cli[4].ppp[0].queue queueLength:last 0
scalar NClients.cli[4].ppp[0].queue queueLength:max 10
scalar NClients.cli[4].ppp[0].queue queueLength:timeavg 0.16253831999999732
scalar NClients.cli[4].ppp[0].queue queueBitLength:last 0
scalar NClients.cli[4].ppp[0].queue queueBitLength:max 46080
scalar NClients.cli[4].ppp[0].queue queueBitLength:timeavg 748.71731302400849
scalar NClients.cli[4].ppp[0].queue outgoingPackets:count 1972
scalar NClients.cli[4].ppp[0].queue outgoingPacketLengths:sum 9071136
scalar NClients.cli[4].ppp[0].queue incomingPackets:count 1972
scalar NClients.cli[4].ppp[0].queue incomingPacketLengths:sum 9071136
scalar NClients.cli[4].ppp[0].queue droppedPacketsQueueOverflow:count 0
scalar NClients.cli[4].ppp[0].queue droppedPacketLengthsQueueOverflow:sum 0
scalar NClients.cli[4].ppp[0].ppp transmissionState:timeavg 0.018363135999999412
scalar NClients.cli[4].ppp[0].ppp rxPkOk:count 1959
scalar NClients.cli[4].ppp[0].ppp rxPkOk:sum(packetBytes) 92077
scalar NClients.cli[4].ppp[0].ppp txPk:count 1972
scalar NClients.cli[4].ppp[0].ppp txPk:sum(packetBytes) 1147696
scalar NClients.cli[4].ppp[0].ppp rcvdPkFromHl:count 1972
scalar NClients.cli[4].ppp[0].ppp rcvdPkFromHl:sum(packetBytes) 1133892
scalar NClients.cli[4].ppp[0].ppp passedUpPk:count 1959
scalar NClients.cli[4].ppp[0].ppp passedUpPk:sum(packetBytes) 78364
scalar NClients.cli[4].ppp[0].ppp packetDropIncorrectlyReceived:count 0
scalar NClients.cli[4].ppp[0].ppp packetDropIncorrectlyReceived:sum(packetBytes) 0
scalar NClients.cli[4].ppp[0].ppp packetDropInterfaceDown:count 0
scalar NClients.cli[4].ppp[0].ppp packetDropInterfaceDown:sum(packetBytes) 0
scalar NClients.cli[4].ppp[0] packetDropInterfaceDown:count 0
scalar NClients.cli[4].ppp[0] packetDropInterfaceDown:sum(packetBytes) 0
scalar NClients.cli[4].ppp[0] packetDropNoCarrier:count 0
scalar NClients.cli[4].ppp[0] packetDropNoCarrier:sum(packetBytes) 0
scalar NClients.cli[4].ipv4.ip packetDropAddressResolutionFailed:count 0
scalar NClients.cli[4].ipv4.ip packetDropAddressResolutionFailed:sum(packetBytes) 0
scalar NClients.cli[4].ipv4.ip packetDropHopLimitReached:count 0
scalar NClients.cli[4].ipv4.ip packetDropHopLimitReached:sum(packetBytes) 0
scalar NClients.cli[4].ipv4.ip packetDropForwardingDisabled:count 0
scalar NClients.cli[4].ipv4.ip packetDropForwardingDisabled:sum(packetBytes) 0
scalar NClients.cli[4].ipv4.ip packetDropLifetimeExpired:count 0
scalar NClients.cli[4].ipv4.ip packetDropLifetimeExpired:sum(packetBytes) 0
scalar NClients.cli[4].ipv4.ip packetDropNoInterfaceFound:count 0
scalar NClients.cli[4].ipv4.ip packetDropNoInterfaceFound:sum(packetBytes) 0
scalar NClients.cli[4].ipv4.ip packetDropNoRouteFound:count 0
scalar NClients.cli[4].ipv4.ip packetDropNoRouteFound:sum(packetBytes) 0
scalar NClients.cli[4].ipv4.ip packetDropUndefined:count 0
scalar NClients.cli[4].ipv4.ip packetDropUndefined:sum(packetBytes) 0
scalar NClients.cli[4].ipv4.arp arpResolutionFailed:count 0
scalar NClients.cli[4].ipv4.arp arpResolutionCompleted:count 0
scalar NClients.cli[4].ipv4.arp arpResolutionInitiated:count 0
scalar NClients.cli[4].ipv4.arp arpReplySent:count 0
scalar NClients.cli[4].ipv4.arp arpReplySent:sum(packetBytes) 0
scalar NClients.cli[4].ipv4.arp arpRequestSent:count 0
scalar NClients.cli[4].ipv4.arp arpRequestSent:sum(packetBytes) 0
scalar NClients.cli[4].udp packetReceived:count 0
scalar NClients.cli[4].udp packetReceived:sum(packetBytes) 0
scalar NClients.cli[4].udp packetSent:count 0
scalar NClients.cli[4].udp packetSent:sum(packetBytes) 0
scalar NClients.cli[4].udp passedUpPk:count 0
scalar NClients.cli[4].udp droppedPkWrongPort:count 0
scalar NClients.cli[4].udp droppedPkBadChecksum:count 0
scalar NClients.cli[4].app[0] bytesRcvd 0
scalar NClients.cli[4].app[0] bytesSent 1048576
scalar NClients.cli[4].app[0] packetReceived:count 0
scalar NClients.cli[4].app[0] packetReceived:sum(packetBytes) 0
scalar NClients.cli[4].app[0] packetSent:count 1
scalar NClients.cli[4].app[0] packetSent:sum(packetBytes) 1048576
scalar NClients.srv.lo[0].lo rcvdPkFromHl:count 0
scalar NClients.srv.lo[0].lo rcvdPkFromHl:sum(packetBytes) 0
scalar NClients.srv.lo[0].lo passedUpPk:count 0
scalar NClients.srv.lo[0].lo passedUpPk:sum(packetBytes) 0
scalar NClients.srv.lo[0] packetDropInterfaceDown:count 0
scalar NClients.srv.lo[0] packetDropInterfaceDown:sum(packetBytes) 0
scalar NClients.srv.lo[0] packetDropNoCarrier:count 0
scalar NClients.srv.lo[0] packetDropNoCarrier:sum(packetBytes) 0
scalar NClients.srv.ppp[0].queue queueLength:last 0
scalar NClients.srv.ppp[0].queue queueLength:max 1
scalar NClients.srv.ppp[0].queue queueLength:timeavg 3.7599999999999996e-06
scalar NClients.srv.ppp[0].queue queueBitLength:last 0
scalar NClients.srv.ppp[0].queue queueBitLength:max 320
scalar NClients.srv.ppp[0].queue queueBitLength:timeavg 0.0012032
scalar NClients.srv.ppp[0].queue outgoingPackets:count 9795
scalar NClients.srv.ppp[0].queue outgoingPacketLengths:sum 3134560
scalar NClients.srv.ppp[0].queue incomingPackets:count 9795
scalar NClients.srv.ppp[0].queue incomingPacketLengths:sum 3134560
scalar NClients.srv.ppp[0].queue droppedPacketsQueueOverflow:count 0
scalar NClients.srv.ppp[0].queue droppedPacketLengthsQueueOverflow:sum 0
scalar NClients.srv.ppp[0].ppp transmissionState:timeavg 0.0073661600000015127
scalar NClients.srv.ppp[0].ppp rxPkOk:count 9800
scalar NClients.srv.ppp[0].ppp rxPkOk:sum(packetBytes) 5703500
scalar NClients.srv.ppp[0].ppp txPk:count 9795
scalar NClients.srv.ppp[0].ppp txPk:sum(packetBytes) 460385
scalar NClients.srv.ppp[0].ppp rcvdPkFromHl:count 9795
scalar NClients.srv.ppp[0].ppp rcvdPkFromHl:sum(packetBytes) 391820
scalar NClients.srv.ppp[0].ppp passedUpPk:count 9800
scalar NClients.srv.ppp[0].ppp passedUpPk:sum(packetBytes) 5634900
scalar NClients.srv.ppp[0].ppp packetDropIncorrectlyReceived:count 0
scalar NClients.srv.ppp[0].ppp packetDropIncorrectlyReceived:sum(packetBytes) 0
scalar NClients.srv.ppp[0].ppp packetDropInterfaceDown:count 0
scalar NClients.srv.ppp[0].ppp packetDropInterfaceDown:sum(packetBytes) 0
scalar NClients.srv.ppp[0] packetDropInterfaceDown:count 0
scalar NClients.srv.ppp[0] packetDropInterfaceDown:sum(packetBytes) 0
scalar NClients.srv.ppp[0] packetDropNoCarrier:count 0
scalar NClients.srv.ppp[0] packetDropNoCarrier:sum(packetBytes) 0
scalar NClients.srv.ipv4.ip packetDropAddressResolutionFailed:count 0
scalar NClients.srv.ipv4.ip packetDropAddressResolutionFailed:sum(packetBytes) 0
scalar NClients.srv.ipv4.ip packetDropHopLimitReached:count 0
scalar NClients.srv.ipv4.ip packetDropHopLimitReached:sum(packetBytes) 0
scalar NClients.srv.ipv4.ip packetDropForwardingDisabled:count 0
scalar NClients.srv.ipv4.ip packetDropForwardingDisabled:sum(packetBytes) 0
scalar NClients.srv.ipv4.ip packetDropLifetimeExpired:count 0
scalar NClients.srv.ipv4.ip packetDropLifetimeExpired:sum(packetBytes) 0
scalar NClients.srv.ipv4.ip packetDropNoInterfaceFound:count 0
scalar NClients.srv.ipv4.ip packetDropNoInterfaceFound:sum(packetBytes) 0
scalar NClients.srv.ipv4.ip packetDropNoRouteFound:count 0
scalar NClients.srv.ipv4.ip packetDropNoRouteFound:sum(packetBytes) 0
scalar NClients.srv.ipv4.ip packetDropUndefined:count 0
scalar NClients.srv.ipv4.ip packetDropUndefined:sum(packetBytes) 0
scalar NClients.srv.ipv4.arp arpResolutionFailed:count 0
scalar NClients.srv.ipv4.arp arpResolutionCompleted:count 0
scalar NClients.srv.ipv4.arp arpResolutionInitiated:count 0
scalar NClients.srv.ipv4.arp arpReplySent:count 0
scalar NClients.srv.ipv4.arp arpReplySent:sum(packetBytes) 0
scalar NClients.srv.ipv4.arp arpRequestSent:count 0
scalar NClients.srv.ipv4.arp arpRequestSent:sum(packetBytes) 0
scalar NClients.srv.udp packetReceived:count 0
scalar NClients.srv.udp packetReceived:sum(packetBytes) 0
scalar NClients.srv.udp packetSent:count 0
scalar NClients.srv.udp packetSent:sum(packetBytes) 0
scalar NClients.srv.udp passedUpPk:count 0
scalar NClients.srv.udp droppedPkWrongPort:count 0
scalar NClients.srv.udp droppedPkBadChecksum:count 0
scalar NClients.srv.app[0] bytesRcvd 5242880
scalar NClients.srv.app[0] packetReceived:count 9747
scalar NClients.srv.app[0] packetReceived:sum(packetBytes) 5242880
scalar NClients.r1.ppp[0].queue queueingTime:histogram:count 1959
scalar NClients.r1.ppp[0].queue queueingTime:histogram:sumweights 1959
scalar NClients.r1.ppp[0].queue queueingTime:histogram:mean 0
scalar NClients.r1.ppp[0].queue queueingTime:histogram:stddev 0
scalar NClients.r1.ppp[0].queue queueingTime:histogram:min 0
scalar NClients.r1.ppp[0].queue queueingTime:histogram:max 0
scalar NClients.r1.ppp[0].queue queueingTime:histogram:numbins 50
scalar NClients.r1.ppp[0].queue queueingTime:histogram:rangemin -0.5
scalar NClients.r1.ppp[0].queue queueingTime:histogram:rangemax 0.5
scalar NClients.r1.ppp[0].queue queueingTime:histogram:underflows 0
scalar NClients.r1.ppp[0].queue queueingTime:histogram:overflows 0
scalar NClients.r1.ppp[0].queue outgoingPacketLengths:histogram:count 1959
scalar NClients.r1.ppp[0].queue outgoingPacketLengths:histogram:sumweights 1959
scalar NClients.r1.ppp[0].queue outgoingPacketLengths:histogram:mean 320.0163348647269
scalar NClients.r1.ppp[0].queue outgoingPacketLengths:histogram:stddev 0.7229907822840107
scalar NClients.r1.ppp[0].queue outgoingPacketLengths:histogram:min 320
scalar NClients.r1.ppp[0].queue outgoingPacketLengths:histogram:max 352
scalar NClients.r1.ppp[0].queue outgoingPacketLengths:histogram:numbins 48
scalar NClients.r1.ppp[0].queue outgoingPacketLengths:histogram:rangemin 312
scalar NClients.r1.ppp[0].queue outgoingPacketLengths:histogram:rangemax 360
scalar NClients.r1.ppp[0].queue outgoingPacketLengths:histogram:underflows 0
scalar NClients.r1.ppp[0].queue outgoingPacketLengths:histogram:overflows 0
scalar NClients.r1.ppp[0].queue flowQueueingTime:histogram:count 0
scalar NClients.r1.ppp[0].queue flowQueueingTime:histogram:sumweights 0
scalar NClients.r1.ppp[0].queue flowQueueingTime:histogram:mean -nan
scalar NClients.r1.ppp[0].queue flowQueueingTime:histogram:stddev nan
scalar NClients.r1.ppp[0].queue flowQueueingTime:histogram:min nan
scalar NClients.r1.ppp[0].queue flowQueueingTime:histogram:max nan
scalar NClients.r1.ppp[0].queue flowQueueingTime:histogram:numbins 1
scalar NClients.r1.ppp[0].queue flowQueueingTime:histogram:rangemin 0
scalar NClients.r1.ppp[0].queue flowQueueingTime:histogram:rangemax 1
scalar NClients.r1.ppp[0].queue flowQueueingTime:histogram:underflows 0
scalar NClients.r1.ppp[0].queue flowQueueingTime:histogram:overflows 0
scalar NClients.r1.ppp[0].queue incomingPacketLengths:histogram:count 1959
scalar NClients.r1.ppp[0].queue incomingPacketLengths:histogram:sumweights 1959
scalar NClients.r1.ppp[0].queue incomingPacketLengths:histogram:mean 320.0163348647269
scalar NClients.r1.ppp[0].queue incomingPacketLengths:histogram:stddev 0.7229907822840107
scalar NClients.r1.ppp[0].queue incomingPacketLengths:histogram:min 320
scalar NClients.r1.ppp[0].queue incomingPacketLengths:histogram:max 352
scalar NClients.r1.ppp[0].queue incomingPacketLengths:histogram:numbins 48
scalar NClients.r1.ppp[0].queue incomingPacketLengths:histogram:rangemin 312
scalar NClients.r1.ppp[0].queue incomingPacketLengths:histogram:rangemax 360
scalar NClients.r1.ppp[0].queue incomingPacketLengths:histogram:underflows 0
scalar NClients.r1.ppp[0].queue incomingPacketLengths:histogram:overflows 0
scalar NClients.r1.ppp[1].queue queueingTime:histogram:count 1959
scalar NClients.r1.ppp[1].queue queueingTime:histogram:sumweights 1959
scalar NClients.r1.ppp[1].queue queueingTime:histogram:mean 0
scalar NClients.r1.ppp[1].queue queueingTime:histogram:stddev 0
scalar NClients.r1.ppp[1].queue queueingTime:histogram:min 0
scalar NClients.r1.ppp[1].queue queueingTime:histogram:max 0
scalar NClients.r1.ppp[1].queue queueingTime:histogram:numbins 50
scalar NClients.r1.ppp[1].queue queueingTime:histogram:rangemin -0.5
scalar NClients.r1.ppp[1].queue queueingTime:histogram:rangemax 0.5
scalar NClients.r1.ppp[1].queue queueingTime:histogram:underflows 0
scalar NClients.r1.ppp[1].queue queueingTime:histogram:overflows 0
scalar NClients.r1.ppp[1].queue outgoingPacketLengths:histogram:count 1959
scalar NClients.r1.ppp[1].queue outgoingPacketLengths:histogram:sumweights 1959
scalar NClients.r1.ppp[1].queue outgoingPacketLengths:histogram:mean 320.0163348647269
scalar NClients.r1.ppp[1].queue outgoingPacketLengths:histogram:stddev 0.7229907822840107
scalar NClients.r1.ppp[1].queue outgoingPacketLengths:histogram:min 320
scalar NClients.r1.ppp[1].queue outgoingPacketLengths:histogram:max 352
scalar NClients.r1.ppp[1].queue outgoingPacketLengths:histogram:numbins 48
scalar NClients.r1.ppp[1].queue outgoingPacketLengths:histogram:rangemin 312
scalar NClients.r1.ppp[1].queue outgoingPacketLengths:histogram:rangemax 360
scalar NClients.r1.ppp[1].queue outgoingPacketLengths:histogram:underflows 0
scalar NClients.r1.ppp[1].queue outgoingPacketLengths:histogram:overflows 0
scalar NClients.r1.ppp[1].queue flowQueueingTime:histogram:count 0
scalar NClients.r1.ppp[1].queue flowQueueingTime:histogram:sumweights 0
scalar NClients.r1.ppp[1].queue flowQueueingTime:histogram:mean -nan
scalar NClients.r1.ppp[1].queue flowQueueingTime:histogram:stddev nan
scalar NClients.r1.ppp[1].queue flowQueueingTime:histogram:min nan
scalar NClients.r1.ppp[1].queue flowQueueingTime:histogram:max nan
scalar NClients.r1.ppp[1].queue flowQueueingTime:histogram:numbins 1
scalar NClients.r1.ppp[1].queue flowQueueingTime:histogram:rangemin 0
scalar NClients.r1.ppp[1].queue flowQueueingTime:histogram:rangemax 1
scalar NClients.r1.ppp[1].queue flowQueueingTime:histogram:underflows 0
scalar NClients.r1.ppp[1].queue flowQueueingTime:histogram:overflows 0
scalar NClients.r1.ppp[1].queue incomingPacketLengths:histogram:count 1959
scalar NClients.r1.ppp[1].queue incomingPacketLengths:histogram:sumweights 1959
scalar NClients.r1.ppp[1].queue incomingPacketLengths:histogram:mean 320.0163348647269
scalar NClients.r1.ppp[1].queue incomingPacketLengths:histogram:stddev 0.7229907822840107
scalar NClients.r1.ppp[1].queue incomingPacketLengths:histogram:min 320
scalar NClients.r1.ppp[1].queue incomingPacketLengths:histogram:max 352
scalar NClients.r1.ppp[1].queue incomingPacketLengths:histogram:numbins 48
scalar NClients.r1.ppp[1].queue incomingPacketLengths:histogram:rangemin 312
scalar NClients.r1.ppp[1].queue incomingPacketLengths:histogram:rangemax 360
scalar NClients.r1.ppp[1].queue incomingPacketLengths:histogram:underflows 0
scalar NClients.r1.ppp[1].queue incomingPacketLengths:histogram:overflows 0
scalar NClients.r1.ppp[2].queue queueingTime:histogram:count 1959
scalar NClients.r1.ppp[2].queue queueingTime:histogram:sumweights 1959
scalar NClients.r1.ppp[2].queue queueingTime:histogram:mean 0
scalar NClients.r1.ppp[2].queue queueingTime:histogram:stddev 0
scalar NClients.r1.ppp[2].queue queueingTime:histogram:min 0
scalar NClients.r1.ppp[2].queue queueingTime:histogram:max 0
scalar NClients.r1.ppp[2].queue queueingTime:histogram:numbins 50
scalar NClients.r1.ppp[2].queue queueingTime:histogram:rangemin -0.5
scalar NClients.r1.ppp[2].queue queueingTime:histogram:rangemax 0.5
scalar NClients.r1.ppp[2].queue queueingTime:histogram:underflows 0
scalar NClients.r1.ppp[2].queue queueingTime:histogram:overflows 0
scalar NClients.r1.ppp[2].queue outgoingPacketLengths:histogram:count 1959
scalar NClients.r1.ppp[2].queue outgoingPacketLengths:histogram:sumweights 1959
scalar NClients.r1.ppp[2].queue outgoingPacketLengths:histogram:mean 320.0163348647269
scalar NClients.r1.ppp[2].queue outgoingPacketLengths:histogram:stddev 0.7229907822840107
scalar NClients.r1.ppp[2].queue outgoingPacketLengths:histogram:min 320
scalar NClients.r1.ppp[2].queue outgoingPacketLengths:histogram:max 352
scalar NClients.r1.ppp[2].queue outgoingPacketLengths:histogram:numbins 48
scalar NClients.r1.ppp[2].queue outgoingPacketLengths:histogram:rangemin 312
scalar NClients.r1.ppp[2].queue outgoingPacketLengths:histogram:rangemax 360
scalar NClients.r1.ppp[2].queue outgoingPacketLengths:histogram:underflows 0
scalar NClients.r1.ppp[2].queue outgoingPacketLengths:histogram:overflows 0
scalar NClients.r1.ppp[2].queue flowQueueingTime:histogram:count 0
scalar NClients.r1.ppp[2].queue flowQueueingTime:histogram:sumweights 0
scalar NClients.r1.ppp[2].queue flowQueueingTime:histogram:mean -nan
scalar NClients.r1.ppp[2].queue flowQueueingTime:histogram:stddev nan
scalar NClients.r1.ppp[2].queue flowQueueingTime:histogram:min nan
scalar NClients.r1.ppp[2].queue flowQueueingTime:histogram:max nan
scalar NClients.r1.ppp[2].queue flowQueueingTime:histogram:numbins 1
scalar NClients.r1.ppp[2].queue flowQueueingTime:histogram:rangemin 0
scalar NClients.r1.ppp[2].queue flowQueueingTime:histogram:rangemax 1
scalar NClients.r1.ppp[2].queue flowQueueingTime:histogram:underflows 0
scalar NClients.r1.ppp[2].queue flowQueueingTime:histogram:overflows 0
scalar NClients.r1.ppp[2].queue incomingPacketLengths:histogram:count 1959
scalar NClients.r1.ppp[2].queue incomingPacketLengths:histogram:sumweights 1959
scalar NClients.r1.ppp[2].queue incomingPacketLengths:histogram:mean 320.0163348647269
scalar NClients.r1.ppp[2].queue incomingPacketLengths:histogram:stddev 0.7229907822840107
scalar NClients.r1.ppp[2].queue incomingPacketLengths:histogram:min 320
scalar NClients.r1.ppp[2].queue incomingPacketLengths:histogram:max 352
scalar NClients.r1.ppp[2].queue incomingPacketLengths:histogram:numbins 48
scalar NClients.r1.ppp[2].queue incomingPacketLengths:histogram:rangemin 312
scalar NClients.r1.ppp[2].queue incomingPacketLengths:histogram:rangemax 360
scalar NClients.r1.ppp[2].queue incomingPacketLengths:histogram:underflows 0
scalar NClients.r1.ppp[2].queue incomingPacketLengths:histogram:overflows 0
scalar NClients.r1.ppp[3].queue queueingTime:histogram:count 1959
scalar NClients.r1.ppp[3].queue queueingTime:histogram:sumweights 1959
scalar NClients.r1.ppp[3].queue queueingTime:histogram:mean 0
scalar NClients.r1.ppp[3].queue queueingTime:histogram:stddev 0
scalar NClients.r1.ppp[3].queue queueingTime:histogram:min 0
scalar NClients.r1.ppp[3].queue queueingTime:histogram:max 0
scalar NClients.r1.ppp[3].queue queueingTime:histogram:numbins 50
scalar NClients.r1.ppp[3].queue queueingTime:histogram:rangemin -0.5
scalar NClients.r1.ppp[3].queue queueingTime:histogram:rangemax 0.5
scalar NClients.r1.ppp[3].queue queueingTime:histogram:underflows 0
scalar NClients.r1.ppp[3].queue queueingTime:histogram:overflows 0
scalar NClients.r1.ppp[3].queue outgoingPacketLengths:histogram:count 1959
scalar NClients.r1.ppp[3].queue outgoingPacketLengths:histogram:sumweights 1959
scalar NClients.r1.ppp[3].queue outgoingPacketLengths:histogram:mean 320.0163348647269
scalar NClients.r1.ppp[3].queue outgoingPacketLengths:histogram:stddev 0.7229907822840107
scalar NClients.r1.ppp[3].queue outgoingPacketLengths:histogram:min 320
scalar NClients.r1.ppp[3].queue outgoingPacketLengths:histogram:max 352
scalar NClients.r1.ppp[3].queue outgoingPacketLengths:histogram:numbins 48
scalar NClients.r1.ppp[3].queue outgoingPacketLengths:histogram:rangemin 312
scalar NClients.r1.ppp[3].queue outgoingPacketLengths:histogram:rangemax 360
scalar NClients.r1.ppp[3].queue outgoingPacketLengths:histogram:underflows 0
scalar NClients.r1.ppp[3].queue outgoingPacketLengths:histogram:overflows 0
scalar NClients.r1.ppp[3].queue flowQueueingTime:histogram:count 0
scalar NClients.r1.ppp[3].queue flowQueueingTime:histogram:sumweights 0
scalar NClients.r1.ppp[3].queue flowQueueingTime:histogram:mean -nan
scalar NClients.r1.ppp[3].queue flowQueueingTime:histogram:stddev nan
scalar NClients.r1.ppp[3].queue flowQueueingTime:histogram:min nan
scalar NClients.r1.ppp[3].queue flowQueueingTime:histogram:max nan
scalar NClients.r1.ppp[3].queue flowQueueingTime:histogram:numbins 1
scalar NClients.r1.ppp[3].queue flowQueueingTime:histogram:rangemin 0
scalar NClients.r1.ppp[3].queue flowQueueingTime:histogram:rangemax 1
scalar NClients.r1.ppp[3].queue flowQueueingTime:histogram:underflows 0
scalar NClients.r1.ppp[3].queue flowQueueingTime:histogram:overflows 0
scalar NClients.r1.ppp[3].queue incomingPacketLengths:histogram:count 1959
scalar NClients.r1.ppp[3].queue incomingPacketLengths:histogram:sumweights 1959
scalar NClients.r1.ppp[3].queue incomingPacketLengths:histogram:mean 320.0163348647269
scalar NClients.r1.ppp[3].queue incomingPacketLengths:histogram:stddev 0.7229907822840107
scalar NClients.r1.ppp[3].queue incomingPacketLengths:histogram:min 320
scalar NClients.r1.ppp[3].queue incomingPacketLengths:histogram:max 352
scalar NClients.r1.ppp[3].queue incomingPacketLengths:histogram:numbins 48
scalar NClients.r1.ppp[3].queue incomingPacketLengths:histogram:rangemin 312
scalar NClients.r1.ppp[3].queue incomingPacketLengths:histogram:rangemax 360
scalar NClients.r1.ppp[3].queue incomingPacketLengths:histogram:underflows 0
scalar NClients.r1.ppp[3].queue incomingPacketLengths:histogram:overflows 0
scalar NClients.r1.ppp[4].queue queueingTime:histogram:count 1959
scalar NClients.r1.ppp[4].queue queueingTime:histogram:sumweights 1959
scalar NClients.r1.ppp[4].queue queueingTime:histogram:mean 0
scalar NClients.r1.ppp[4].queue queueingTime:histogram:stddev 0
scalar NClients.r1.ppp[4].queue queueingTime:histogram:min 0
scalar NClients.r1.ppp[4].queue queueingTime:histogram:max 0
scalar NClients.r1.ppp[4].queue queueingTime:histogram:numbins 50
scalar NClients.r1.ppp[4].queue queueingTime:histogram:rangemin -0.5
scalar NClients.r1.ppp[4].queue queueingTime:histogram:rangemax 0.5
scalar NClients.r1.ppp[4].queue queueingTime:histogram:underflows 0
scalar NClients.r1.ppp[4].queue queueingTime:histogram:overflows 0
scalar NClients.r1.ppp[4].queue outgoingPacketLengths:histogram:count 1959
scalar NClients.r1.ppp[4].queue outgoingPacketLengths:histogram:sumweights 1959
scalar NClients.r1.ppp[4].queue outgoingPacketLengths:histogram:mean 320.0163348647269
scalar NClients.r1.ppp[4].queue outgoingPacketLengths:histogram:stddev 0.7229907822840107
scalar NClients.r1.ppp[4].queue outgoingPacketLengths:histogram:min 320
scalar NClients.r1.ppp[4].queue outgoingPacketLengths:histogram:max 352
scalar NClients.r1.ppp[4].queue outgoingPacketLengths:histogram:numbins 48
scalar NClients.r1.ppp[4].queue outgoingPacketLengths:histogram:rangemin 312
scalar NClients.r1.ppp[4].queue outgoingPacketLengths:histogram:rangemax 360
scalar NClients.r1.ppp[4].queue outgoingPacketLengths:histogram:underflows 0
scalar NClients.r1.ppp[4].queue outgoingPacketLengths:histogram:overflows 0
scalar NClients.r1.ppp[4].queue flowQueueingTime:histogram:count 0
scalar NClients.r1.ppp[4].queue flowQueueingTime:histogram:sumweights 0
scalar NClients.r1.ppp[4].queue flowQueueingTime:histogram:mean -nan
scalar NClients.r1.ppp[4].queue flowQueueingTime:histogram:stddev nan
scalar NClients.r1.ppp[4].queue flowQueueingTime:histogram:min nan
scalar NClients.r1.ppp[4].queue flowQueueingTime:histogram:max nan
scalar NClients.r1.ppp[4].queue flowQueueingTime:histogram:numbins 1
scalar NClients.r1.ppp[4].queue flowQueueingTime:histogram:rangemin 0
scalar NClients.r1.ppp[4].queue flowQueueingTime:histogram:rangemax 1
scalar NClients.r1.ppp[4].queue flowQueueingTime:histogram:underflows 0
scalar NClients.r1.ppp[4].queue flowQueueingTime:histogram:overflows 0
scalar NClients.r1.ppp[4].queue incomingPacketLengths:histogram:count 1959
scalar NClients.r1.ppp[4].queue incomingPacketLengths:histogram:sumweights 1959
scalar NClients.r1.ppp[4].queue incomingPacketLengths:histogram:mean 320.0163348647269
scalar NClients.r1.ppp[4].queue incomingPacketLengths:histogram:stddev 0.7229907822840107
scalar NClients.r1.ppp[4].queue incomingPacketLengths:histogram:min 320
scalar NClients.r1.ppp[4].queue incomingPacketLengths:histogram:max 352
scalar NClients.r1.ppp[4].queue incomingPacketLengths:histogram:numbins 48
scalar NClients.r1.ppp[4].queue incomingPacketLengths:histogram:rangemin 312
scalar NClients.r1.ppp[4].queue incomingPacketLengths:histogram:rangemax 360
scalar NClients.r1.ppp[4].queue incomingPacketLengths:histogram:underflows 0
scalar NClients.r1.ppp[4].queue incomingPacketLengths:histogram:overflows 0
scalar NClients.r1.ppp[5].queue queueingTime:histogram:count 9800
scalar NClients.r1.ppp[5].queue queueingTime:histogram:sumweights 9800
scalar NClients.r1.ppp[5].queue queueingTime:histogram:mean 0.0006757509046362532
scalar NClients.r1.ppp[5].queue queueingTime:histogram:stddev 0.0015449089013985207
scalar NClients.r1.ppp[5].queue queueingTime:histogram:min 0
scalar NClients.r1.ppp[5].queue queueingTime:histogram:max 0.0046639999999999997
scalar NClients.r1.ppp[5].queue queueingTime:histogram:numbins 57
scalar NClients.r1.ppp[5].queue queueingTime:histogram:rangemin 0
scalar NClients.r1.ppp[5].queue queueingTime:histogram:rangemax 0.0057000000000000002
scalar NClients.r1.ppp[5].queue queueingTime:histogram:underflows 0
scalar NClients.r1.ppp[5].queue queueingTime:histogram:overflows 0
scalar NClients.r1.ppp[5].queue outgoingPacketLengths:histogram:count 9800
scalar NClients.r1.ppp[5].queue outgoingPacketLengths:histogram:sumweights 9800
scalar NClients.r1.ppp[5].queue outgoingPacketLengths:histogram:mean 4599.9183673469388
scalar NClients.r1.ppp[5].queue outgoingPacketLengths:histogram:stddev 180.43878854973241
scalar NClients.r1.ppp[5].queue outgoingPacketLengths:histogram:min 320
scalar NClients.r1.ppp[5].queue outgoingPacketLengths:histogram:max 4608
scalar NClients.r1.ppp[5].queue outgoingPacketLengths:histogram:numbins 57
scalar NClients.r1.ppp[5].queue outgoingPacketLengths:histogram:rangemin 0
scalar NClients.r1.ppp[5].queue outgoingPacketLengths:histogram:rangemax 5700
scalar NClients.r1.ppp[5].queue outgoingPacketLengths:histogram:underflows 0
scalar NClients.r1.ppp[5].queue outgoingPacketLengths:histogram:overflows 0
scalar NClients.r1.ppp[5].queue flowQueueingTime:histogram:count 0
scalar NClients.r1.ppp[5].queue flowQueueingTime:histogram:sumweights 0
scalar NClients.r1.ppp[5].queue flowQueueingTime:histogram:mean -nan
scalar NClients.r1.ppp[5].queue flowQueueingTime:histogram:stddev nan
scalar NClients.r1.ppp[5].queue flowQueueingTime:histogram:min nan
scalar NClients.r1.ppp[5].queue flowQueueingTime:histogram:max nan
scalar NClients.r1.ppp[5].queue flowQueueingTime:histogram:numbins 1
scalar NClients.r1.ppp[5].queue flowQueueingTime:histogram:rangemin 0
scalar NClients.r1.ppp[5].queue flowQueueingTime:histogram:rangemax 1
scalar NClients.r1.ppp[5].queue flowQueueingTime:histogram:underflows 0
scalar NClients.r1.ppp[5].queue flowQueueingTime:histogram:overflows 0
scalar NClients.r1.ppp[5].queue incomingPacketLengths:histogram:count 9833
scalar NClients.r1.ppp[5].queue incomingPacketLengths:histogram:sumweights 9833
scalar NClients.r1.ppp[5].queue incomingPacketLengths:histogram:mean 4598.9008440964099
scalar NClients.r1.ppp[5].queue incomingPacketLengths:histogram:stddev 190.03687501439231
scalar NClients.r1.ppp[5].queue incomingPacketLengths:histogram:min 320
scalar NClients.r1.ppp[5].queue incomingPacketLengths:histogram:max 4608
scalar NClients.r1.ppp[5].queue incomingPacketLengths:histogram:numbins 57
scalar NClients.r1.ppp[5].queue incomingPacketLengths:histogram:rangemin 0
scalar NClients.r1.ppp[5].queue incomingPacketLengths:histogram:rangemax 5700
scalar NClients.r1.ppp[5].queue incomingPacketLengths:histogram:underflows 0
scalar NClients.r1.ppp[5].queue incomingPacketLengths:histogram:overflows 0
scalar NClients.r2.ppp[0].queue queueingTime:histogram:count 9795
scalar NClients.r2.ppp[0].queue queueingTime:histogram:sumweights 9795
scalar NClients.r2.ppp[0].queue queueingTime:histogram:mean 0
scalar NClients.r2.ppp[0].queue queueingTime:histogram:stddev 0
scalar NClients.r2.ppp[0].queue queueingTime:histogram:min 0
scalar NClients.r2.ppp[0].queue queueingTime:histogram:max 0
scalar NClients.r2.ppp[0].queue queueingTime:histogram:numbins 50
scalar NClients.r2.ppp[0].queue queueingTime:histogram:rangemin -0.5
scalar NClients.r2.ppp[0].queue queueingTime:histogram:rangemax 0.5
scalar NClients.r2.ppp[0].queue queueingTime:histogram:underflows 0
scalar NClients.r2.ppp[0].queue queueingTime:histogram:overflows 0
scalar NClients.r2.ppp[0].queue outgoingPacketLengths:histogram:count 9795
scalar NClients.r2.ppp[0].queue outgoingPacketLengths:histogram:sumweights 9795
scalar NClients.r2.ppp[0].queue outgoingPacketLengths:histogram:mean 320.0163348647269
scalar NClients.r2.ppp[0].queue outgoingPacketLengths:histogram:stddev 0.72284312767354819
scalar NClients.r2.ppp[0].queue outgoingPacketLengths:histogram:min 320
scalar NClients.r2.ppp[0].queue outgoingPacketLengths:histogram:max 352
scalar NClients.r2.ppp[0].queue outgoingPacketLengths:histogram:numbins 48
scalar NClients.r2.ppp[0].queue outgoingPacketLengths:histogram:rangemin 312
scalar NClients.r2.ppp[0].queue outgoingPacketLengths:histogram:rangemax 360
scalar NClients.r2.ppp[0].queue outgoingPacketLengths:histogram:underflows 0
scalar NClients.r2.ppp[0].queue outgoingPacketLengths:histogram:overflows 0
scalar NClients.r2.ppp[0].queue flowQueueingTime:histogram:count 0
scalar NClients.r2.ppp[0].queue flowQueueingTime:histogram:sumweights 0
scalar NClients.r2.ppp[0].queue flowQueueingTime:histogram:mean -nan
scalar NClients.r2.ppp[0].queue flowQueueingTime:histogram:stddev nan
scalar NClients.r2.ppp[0].queue flowQueueingTime:histogram:min nan
scalar NClients.r2.ppp[0].queue flowQueueingTime:histogram:max nan
scalar NClients.r2.ppp[0].queue flowQueueingTime:histogram:numbins 1
scalar NClients.r2.ppp[0].queue flowQueueingTime:histogram:rangemin 0
scalar NClients.r2.ppp[0].queue flowQueueingTime:histogram:rangemax 1
scalar NClients.r2.ppp[0].queue flowQueueingTime:histogram:underflows 0
scalar NClients.r2.ppp[0].queue flowQueueingTime:histogram:overflows 0
scalar NClients.r2.ppp[0].queue incomingPacketLengths:histogram:count 9795
scalar NClients.r2.ppp[0].queue incomingPacketLengths:histogram:sumweights 9795
scalar NClients.r2.ppp[0].queue incomingPacketLengths:histogram:mean 320.0163348647269
scalar NClients.r2.ppp[0].queue incomingPacketLengths:histogram:stddev 0.72284312767354819
scalar NClients.r2.ppp[0].queue incomingPacketLengths:histogram:min 320
scalar NClients.r2.ppp[0].queue incomingPacketLengths:histogram:max 352
scalar NClients.r2.ppp[0].queue incomingPacketLengths:histogram:numbins 48
scalar NClients.r2.ppp[0].queue incomingPacketLengths:histogram:rangemin 312
scalar NClients.r2.ppp[0].queue incomingPacketLengths:histogram:rangemax 360
scalar NClients.r2.ppp[0].queue incomingPacketLengths:histogram:underflows 0
scalar NClients.r2.ppp[0].queue incomingPacketLengths:histogram:overflows 0
scalar NClients.r2.ppp[1].queue queueingTime:histogram:count 9800
scalar NClients.r2.ppp[1].queue queueingTime:histogram:sumweights 9800
scalar NClients.r2.ppp[1].queue queueingTime:histogram:mean 5.0253061224489791e-07
scalar NClients.r2.ppp[1].queue queueingTime:histogram:stddev 1.3971095558227852e-05
scalar NClients.r2.ppp[1].queue queueingTime:histogram:min 0
scalar NClients.r2.ppp[1].queue queueingTime:histogram:max 0.00042880000000000001
scalar NClients.r2.ppp[1].queue queueingTime:histogram:numbins 54
scalar NClients.r2.ppp[1].queue queueingTime:histogram:rangemin 0
scalar NClients.r2.ppp[1].queue queueingTime:histogram:rangemax 0.00054000000000000001
scalar NClients.r2.ppp[1].queue queueingTime:histogram:underflows 0
scalar NClients.r2.ppp[1].queue queueingTime:histogram:overflows 0
scalar NClients.r2.ppp[1].queue outgoingPacketLengths:histogram:count 9800
scalar NClients.r2.ppp[1].queue outgoingPacketLengths:histogram:sumweights 9800
scalar NClients.r2.ppp[1].queue outgoingPacketLengths:histogram:mean 4599.9183673469388
scalar NClients.r2.ppp[1].queue outgoingPacketLengths:histogram:stddev 180.43878854973241
scalar NClients.r2.ppp[1].queue outgoingPacketLengths:histogram:min 320
scalar NClients.r2.ppp[1].queue outgoingPacketLengths:histogram:max 4608
scalar NClients.r2.ppp[1].queue outgoingPacketLengths:histogram:numbins 57
scalar NClients.r2.ppp[1].queue outgoingPacketLengths:histogram:rangemin 0
scalar NClients.r2.ppp[1].queue outgoingPacketLengths:histogram:rangemax 5700
scalar NClients.r2.ppp[1].queue outgoingPacketLengths:histogram:underflows 0
scalar NClients.r2.ppp[1].queue outgoingPacketLengths:histogram:overflows 0
scalar NClients.r2.ppp[1].queue flowQueueingTime:histogram:count 0
scalar NClients.r2.ppp[1].queue flowQueueingTime:histogram:sumweights 0
scalar NClients.r2.ppp[1].queue flowQueueingTime:histogram:mean -nan
scalar NClients.r2.ppp[1].queue flowQueueingTime:histogram:stddev nan
scalar NClients.r2.ppp[1].queue flowQueueingTime:histogram:min nan
scalar NClients.r2.ppp[1].queue flowQueueingTime:histogram:max nan
scalar NClients.r2.ppp[1].queue flowQueueingTime:histogram:numbins 1
scalar NClients.r2.ppp[1].queue flowQueueingTime:histogram:rangemin 0
scalar NClients.r2.ppp[1].queue flowQueueingTime:histogram:rangemax 1
scalar NClients.r2.ppp[1].queue flowQueueingTime:histogram:underflows 0
scalar NClients.r2.ppp[1].queue flowQueueingTime:histogram:overflows 0
scalar NClients.r2.ppp[1].queue incomingPacketLengths:histogram:count 9800
scalar NClients.r2.ppp[1].queue incomingPacketLengths:histogram:sumweights 9800
scalar NClients.r2.ppp[1].queue incomingPacketLengths:histogram:mean 4599.9183673469388
scalar NClients.r2.ppp[1].queue incomingPacketLengths:histogram:stddev 180.43878854973241
scalar NClients.r2.ppp[1].queue incomingPacketLengths:histogram:min 320
scalar NClients.r2.ppp[1].queue incomingPacketLengths:histogram:max 4608
scalar NClients.r2.ppp[1].queue incomingPacketLengths:histogram:numbins 57
scalar NClients.r2.ppp[1].queue incomingPacketLengths:histogram:rangemin 0
scalar NClients.r2.ppp[1].queue incomingPacketLengths:histogram:rangemax 5700
scalar NClients.r2.ppp[1].queue incomingPacketLengths:histogram:underflows 0
scalar NClients.r2.ppp[1].queue incomingPacketLengths:histogram:overflows 0
scalar NClients.r3.ppp[0].queue queueingTime:histogram:count 9795
scalar NClients.r3.ppp[0].queue queueingTime:histogram:sumweights 9795
scalar NClients.r3.ppp[0].queue queueingTime:histogram:mean 0
scalar NClients.r3.ppp[0].queue queueingTime:histogram:stddev 0
scalar NClients.r3.ppp[0].queue queueingTime:histogram:min 0
scalar NClients.r3.ppp[0].queue queueingTime:histogram:max 0
scalar NClients.r3.ppp[0].queue queueingTime:histogram:numbins 50
scalar NClients.r3.ppp[0].queue queueingTime:histogram:rangemin -0.5
scalar NClients.r3.ppp[0].queue queueingTime:histogram:rangemax 0.5
scalar NClients.r3.ppp[0].queue queueingTime:histogram:underflows 0
scalar NClients.r3.ppp[0].queue queueingTime:histogram:overflows 0
scalar NClients.r3.ppp[0].queue outgoingPacketLengths:histogram:count 9795
scalar NClients.r3.ppp[0].queue outgoingPacketLengths:histogram:sumweights 9795
scalar NClients.r3.ppp[0].queue outgoingPacketLengths:histogram:mean 320.0163348647269
scalar NClients.r3.ppp[0].queue outgoingPacketLengths:histogram:stddev 0.72284312767354819
scalar NClients.r3.ppp[0].queue outgoingPacketLengths:histogram:min 320
scalar NClients.r3.ppp[0].queue outgoingPacketLengths:histogram:max 352
scalar NClients.r3.ppp[0].queue outgoingPacketLengths:histogram:numbins 48
scalar NClients.r3.ppp[0].queue outgoingPacketLengths:histogram:rangemin 312
scalar NClients.r3.ppp[0].queue outgoingPacketLengths:histogram:rangemax 360
scalar NClients.r3.ppp[0].queue outgoingPacketLengths:histogram:underflows 0
scalar NClients.r3.ppp[0].queue outgoingPacketLengths:histogram:overflows 0
scalar NClients.r3.ppp[0].queue flowQueueingTime:histogram:count 0
scalar NClients.r3.ppp[0].queue flowQueueingTime:histogram:sumweights 0
scalar NClients.r3.ppp[0].queue flowQueueingTime:histogram:mean -nan
scalar NClients.r3.ppp[0].queue flowQueueingTime:histogram:stddev nan
scalar NClients.r3.ppp[0].queue flowQueueingTime:histogram:min nan
scalar NClients.r3.ppp[0].queue flowQueueingTime:histogram:max nan
scalar NClients.r3.ppp[0].queue flowQueueingTime:histogram:numbins 1
scalar NClients.r3.ppp[0].queue flowQueueingTime:histogram:rangemin 0
scalar NClients.r3.ppp[0].queue flowQueueingTime:histogram:rangemax 1
scalar NClients.r3.ppp[0].queue flowQueueingTime:histogram:underflows 0
scalar NClients.r3.ppp[0].queue flowQueueingTime:histogram:overflows 0
scalar NClients.r3.ppp[0].queue incomingPacketLengths:histogram:count 9795
scalar NClients.r3.ppp[0].queue incomingPacketLengths:histogram:sumweights 9795
scalar NClients.r3.ppp[0].queue incomingPacketLengths:histogram:mean 320.0163348647269
scalar NClients.r3.ppp[0].queue incomingPacketLengths:histogram:stddev 0.72284312767354819
scalar NClients.r3.ppp[0].queue incomingPacketLengths:histogram:min 320
[...]
scalar NClients.srv.tcp.conn-30 calcLoad:vector:count 0
scalar NClients.srv.tcp.conn-30 calcLoad:vector:sum 0
scalar NClients.srv.tcp.conn-30 calcLoad:vector:sumweights 0
scalar NClients.srv.tcp.conn-30 calcLoad:vector:mean -nan
scalar NClients.srv.tcp.conn-30 calcLoad:vector:stddev nan
scalar NClients.srv.tcp.conn-30 calcLoad:vector:min inf
scalar NClients.srv.tcp.conn-30 calcLoad:vector:max -inf
scalar NClients.srv.tcp.conn-30 calcLoad:vector:starttime nan
scalar NClients.srv.tcp.conn-30 calcLoad:vector:endtime nan
scalar NClients.srv.tcp.conn-30 markingProb:vector:count 0
scalar NClients.srv.tcp.conn-30 markingProb:vector:sum 0
scalar NClients.srv.tcp.conn-30 markingProb:vector:sumweights 0
scalar NClients.srv.tcp.conn-30 markingProb:vector:mean -nan
scalar NClients.srv.tcp.conn-30 markingProb:vector:stddev nan
scalar NClients.srv.tcp.conn-30 markingProb:vector:min inf
scalar NClients.srv.tcp.conn-30 markingProb:vector:max -inf
scalar NClients.srv.tcp.conn-30 markingProb:vector:starttime nan
scalar NClients.srv.tcp.conn-30 markingProb:vector:endtime nan
scalar NClients.srv.app[0].thread_30 packetReceived:vector(packetBytes):count 1957
scalar NClients.srv.app[0].thread_30 packetReceived:vector(packetBytes):sum 1048576
scalar NClients.srv.app[0].thread_30 packetReceived:vector(packetBytes):sumweights 1957
scalar NClients.srv.app[0].thread_30 packetReceived:vector(packetBytes):mean 535.80786918753199
scalar NClients.srv.app[0].thread_30 packetReceived:vector(packetBytes):stddev 8.4994814834766377
scalar NClients.srv.app[0].thread_30 packetReceived:vector(packetBytes):min 160
scalar NClients.srv.app[0].thread_30 packetReceived:vector(packetBytes):max 536
scalar NClients.srv.app[0].thread_30 packetReceived:vector(packetBytes):starttime 3.1940398758050006
scalar NClients.srv.app[0].thread_30 packetReceived:vector(packetBytes):endtime 6.898523130101001
scalar NClients.srv.app[0].thread_30 endToEndDelay:vector:count 1957
scalar NClients.srv.app[0].thread_30 endToEndDelay:vector:sum 10248.312695720351
scalar NClients.srv.app[0].thread_30 endToEndDelay:vector:sumweights 1957
scalar NClients.srv.app[0].thread_30 endToEndDelay:vector:mean 5.2367463953604245
scalar NClients.srv.app[0].thread_30 endToEndDelay:vector:stddev 0.30889293693830505
scalar NClients.srv.app[0].thread_30 endToEndDelay:vector:min 3.0022692253479999
scalar NClients.srv.app[0].thread_30 endToEndDelay:vector:max 6.7067524796439999
scalar NClients.srv.app[0].thread_30 endToEndDelay:vector:starttime 3.1940398758050006
scalar NClients.srv.app[0].thread_30 endToEndDelay:vector:endtime 6.898523130101001
scalar NClients.srv.tcp.conn-31 state:vector:count 5
scalar NClients.srv.tcp.conn-31 state:vector:sum 23
scalar NClients.srv.tcp.conn-31 state:vector:sumweights 5
scalar NClients.srv.tcp.conn-31 state:vector:mean 4.5999999999999996
scalar NClients.srv.tcp.conn-31 state:vector:stddev 2.3021728866442679
scalar NClients.srv.tcp.conn-31 state:vector:min 1
scalar NClients.srv.tcp.conn-31 state:vector:max 7
scalar NClients.srv.tcp.conn-31 state:vector:starttime 3.1257566758050004
scalar NClients.srv.tcp.conn-31 state:vector:endtime 4.0507302758050008
scalar NClients.srv.tcp.conn-31 sndWnd:vector:count 3
scalar NClients.srv.tcp.conn-31 sndWnd:vector:sum 22512
scalar NClients.srv.tcp.conn-31 sndWnd:vector:sumweights 3
scalar NClients.srv.tcp.conn-31 sndWnd:vector:mean 7504
scalar NClients.srv.tcp.conn-31 sndWnd:vector:stddev 0
scalar NClients.srv.tcp.conn-31 sndWnd:vector:min 7504
scalar NClients.srv.tcp.conn-31 sndWnd:vector:max 7504
scalar NClients.srv.tcp.conn-31 sndWnd:vector:starttime 3.1257566758050004
scalar NClients.srv.tcp.conn-31 sndWnd:vector:endtime 4.0507302758050008
scalar NClients.srv.tcp.conn-31 rcvWnd:vector:count 1959
scalar NClients.srv.tcp.conn-31 rcvWnd:vector:sum 14700336
scalar NClients.srv.tcp.conn-31 rcvWnd:vector:sumweights 1959
scalar NClients.srv.tcp.conn-31 rcvWnd:vector:mean 7504
scalar NClients.srv.tcp.conn-31 rcvWnd:vector:stddev 0
scalar NClients.srv.tcp.conn-31 rcvWnd:vector:min 7504
scalar NClients.srv.tcp.conn-31 rcvWnd:vector:max 7504
scalar NClients.srv.tcp.conn-31 rcvWnd:vector:starttime 3.1257566758050004
scalar NClients.srv.tcp.conn-31 rcvWnd:vector:endtime 4.0503910758050008
scalar NClients.srv.tcp.conn-31 rcvAdv:vector:count 1960
scalar NClients.srv.tcp.conn-31 rcvAdv:vector:sum 1104169026
scalar NClients.srv.tcp.conn-31 rcvAdv:vector:sumweights 1960
scalar NClients.srv.tcp.conn-31 rcvAdv:vector:mean 563351.54387755098
scalar NClients.srv.tcp.conn-31 rcvAdv:vector:stddev 303367.97568115056
scalar NClients.srv.tcp.conn-31 rcvAdv:vector:min 38903
scalar NClients.srv.tcp.conn-31 rcvAdv:vector:max 1087480
scalar NClients.srv.tcp.conn-31 rcvAdv:vector:starttime 3.1257566758050004
scalar NClients.srv.tcp.conn-31 rcvAdv:vector:endtime 4.0503910758050008
scalar NClients.srv.tcp.conn-31 sndNxt:vector:count 0
scalar NClients.srv.tcp.conn-31 sndNxt:vector:sum 0
scalar NClients.srv.tcp.conn-31 sndNxt:vector:sumweights 0
scalar NClients.srv.tcp.conn-31 sndNxt:vector:mean -nan
scalar NClients.srv.tcp.conn-31 sndNxt:vector:stddev nan
scalar NClients.srv.tcp.conn-31 sndNxt:vector:min inf
scalar NClients.srv.tcp.conn-31 sndNxt:vector:max -inf
scalar NClients.srv.tcp.conn-31 sndNxt:vector:starttime nan
scalar NClients.srv.tcp.conn-31 sndNxt:vector:endtime nan
scalar NClients.srv.tcp.conn-31 sndAck:vector:count 1959
scalar NClients.srv.tcp.conn-31 sndAck:vector:sum 1089429787
scalar NClients.srv.tcp.conn-31 sndAck:vector:sumweights 1959
scalar NClients.srv.tcp.conn-31 sndAck:vector:mean 556115.25625319046
scalar NClients.srv.tcp.conn-31 sndAck:vector:stddev 303213.76456276432
scalar NClients.srv.tcp.conn-31 sndAck:vector:min 31399
scalar NClients.srv.tcp.conn-31 sndAck:vector:max 1079976
scalar NClients.srv.tcp.conn-31 sndAck:vector:starttime 3.1257566758050004
scalar NClients.srv.tcp.conn-31 sndAck:vector:endtime 4.0503910758050008
scalar NClients.srv.tcp.conn-31 rcvSeq:vector:count 1959
scalar NClients.srv.tcp.conn-31 rcvSeq:vector:sum 1088434274
scalar NClients.srv.tcp.conn-31 rcvSeq:vector:sumweights 1959
scalar NClients.srv.tcp.conn-31 rcvSeq:vector:mean 555607.08218478819
scalar NClients.srv.tcp.conn-31 rcvSeq:vector:stddev 303192.36969710054
scalar NClients.srv.tcp.conn-31 rcvSeq:vector:min 31399
scalar NClients.srv.tcp.conn-31 rcvSeq:vector:max 1079976
scalar NClients.srv.tcp.conn-31 rcvSeq:vector:starttime 3.1260710758050005
scalar NClients.srv.tcp.conn-31 rcvSeq:vector:endtime 4.0507302758050008
scalar NClients.srv.tcp.conn-31 rcvAck:vector:count 1959
scalar NClients.srv.tcp.conn-31 rcvAck:vector:sum 1530840961
scalar NClients.srv.tcp.conn-31 rcvAck:vector:sumweights 1959
scalar NClients.srv.tcp.conn-31 rcvAck:vector:mean 781440.00051046454
scalar NClients.srv.tcp.conn-31 rcvAck:vector:stddev 0.019571507922737201
scalar NClients.srv.tcp.conn-31 rcvAck:vector:min 781440
scalar NClients.srv.tcp.conn-31 rcvAck:vector:max 781441
scalar NClients.srv.tcp.conn-31 rcvAck:vector:starttime 3.1260710758050005
scalar NClients.srv.tcp.conn-31 rcvAck:vector:endtime 4.0507302758050008
scalar NClients.srv.tcp.conn-31 unacked:vector:count 3
scalar NClients.srv.tcp.conn-31 unacked:vector:sum 1
scalar NClients.srv.tcp.conn-31 unacked:vector:sumweights 3
scalar NClients.srv.tcp.conn-31 unacked:vector:mean 0.33333333333333331
scalar NClients.srv.tcp.conn-31 unacked:vector:stddev 0.57735026918962584
scalar NClients.srv.tcp.conn-31 unacked:vector:min 0
scalar NClients.srv.tcp.conn-31 unacked:vector:max 1
scalar NClients.srv.tcp.conn-31 unacked:vector:starttime 3.1260710758050005
scalar NClients.srv.tcp.conn-31 unacked:vector:endtime 4.0507302758050008
scalar NClients.srv.tcp.conn-31 dupAcks:vector:count 1958
scalar NClients.srv.tcp.conn-31 dupAcks:vector:sum 0
scalar NClients.srv.tcp.conn-31 dupAcks:vector:sumweights 1958
scalar NClients.srv.tcp.conn-31 dupAcks:vector:mean 0
scalar NClients.srv.tcp.conn-31 dupAcks:vector:stddev 0
scalar NClients.srv.tcp.conn-31 dupAcks:vector:min 0
scalar NClients.srv.tcp.conn-31 dupAcks:vector:max 0
scalar NClients.srv.tcp.conn-31 dupAcks:vector:starttime 3.1278238758050008
scalar NClients.srv.tcp.conn-31 dupAcks:vector:endtime 4.0507302758050008
scalar NClients.srv.tcp.conn-31 pipe:vector:count 0
scalar NClients.srv.tcp.conn-31 pipe:vector:sum 0
scalar NClients.srv.tcp.conn-31 pipe:vector:sumweights 0
scalar NClients.srv.tcp.conn-31 pipe:vector:mean -nan
scalar NClients.srv.tcp.conn-31 pipe:vector:stddev nan
scalar NClients.srv.tcp.conn-31 pipe:vector:min inf
scalar NClients.srv.tcp.conn-31 pipe:vector:max -inf
scalar NClients.srv.tcp.conn-31 pipe:vector:starttime nan
scalar NClients.srv.tcp.conn-31 pipe:vector:endtime nan
scalar NClients.srv.tcp.conn-31 sndSacks:vector:count 0
scalar NClients.srv.tcp.conn-31 sndSacks:vector:sum 0
scalar NClients.srv.tcp.conn-31 sndSacks:vector:sumweights 0
scalar NClients.srv.tcp.conn-31 sndSacks:vector:mean -nan
scalar NClients.srv.tcp.conn-31 sndSacks:vector:stddev nan
scalar NClients.srv.tcp.conn-31 sndSacks:vector:min inf
scalar NClients.srv.tcp.conn-31 sndSacks:vector:max -inf
scalar NClients.srv.tcp.conn-31 sndSacks:vector:starttime nan
scalar NClients.srv.tcp.conn-31 sndSacks:vector:endtime nan
scalar NClients.srv.tcp.conn-31 rcvSacks:vector:count 0
scalar NClients.srv.tcp.conn-31 rcvSacks:vector:sum 0
scalar NClients.srv.tcp.conn-31 rcvSacks:vector:sumweights 0
scalar NClients.srv.tcp.conn-31 rcvSacks:vector:mean -nan
scalar NClients.srv.tcp.conn-31 rcvSacks:vector:stddev nan
scalar NClients.srv.tcp.conn-31 rcvSacks:vector:min inf
scalar NClients.srv.tcp.conn-31 rcvSacks:vector:max -inf
scalar NClients.srv.tcp.conn-31 rcvSacks:vector:starttime nan
scalar NClients.srv.tcp.conn-31 rcvSacks:vector:endtime nan
scalar NClients.srv.tcp.conn-31 rcvOooSeg:vector:count 18
scalar NClients.srv.tcp.conn-31 rcvOooSeg:vector:sum 171
scalar NClients.srv.tcp.conn-31 rcvOooSeg:vector:sumweights 18
scalar NClients.srv.tcp.conn-31 rcvOooSeg:vector:mean 9.5
scalar NClients.srv.tcp.conn-31 rcvOooSeg:vector:stddev 5.3385391260156556
scalar NClients.srv.tcp.conn-31 rcvOooSeg:vector:min 1
scalar NClients.srv.tcp.conn-31 rcvOooSeg:vector:max 18
scalar NClients.srv.tcp.conn-31 rcvOooSeg:vector:starttime 3.3775006758050008
scalar NClients.srv.tcp.conn-31 rcvOooSeg:vector:endtime 3.3874838758050005
scalar NClients.srv.tcp.conn-31 rcvNASeg:vector:count 0
scalar NClients.srv.tcp.conn-31 rcvNASeg:vector:sum 0
scalar NClients.srv.tcp.conn-31 rcvNASeg:vector:sumweights 0
scalar NClients.srv.tcp.conn-31 rcvNASeg:vector:mean -nan
scalar NClients.srv.tcp.conn-31 rcvNASeg:vector:stddev nan
scalar NClients.srv.tcp.conn-31 rcvNASeg:vector:min inf
scalar NClients.srv.tcp.conn-31 rcvNASeg:vector:max -inf
scalar NClients.srv.tcp.conn-31 rcvNASeg:vector:starttime nan
scalar NClients.srv.tcp.conn-31 rcvNASeg:vector:endtime nan
scalar NClients.srv.tcp.conn-31 sackedBytes:vector:count 0
scalar NClients.srv.tcp.conn-31 sackedBytes:vector:sum 0
scalar NClients.srv.tcp.conn-31 sackedBytes:vector:sumweights 0
scalar NClients.srv.tcp.conn-31 sackedBytes:vector:mean -nan
scalar NClients.srv.tcp.conn-31 sackedBytes:vector:stddev nan
scalar NClients.srv.tcp.conn-31 sackedBytes:vector:min inf
scalar NClients.srv.tcp.conn-31 sackedBytes:vector:max -inf
scalar NClients.srv.tcp.conn-31 sackedBytes:vector:starttime nan
scalar NClients.srv.tcp.conn-31 sackedBytes:vector:endtime nan
scalar NClients.srv.tcp.conn-31 tcpRcvQueueBytes:vector:count 3916
scalar NClients.srv.tcp.conn-31 tcpRcvQueueBytes:vector:sum 106128
scalar NClients.srv.tcp.conn-31 tcpRcvQueueBytes:vector:sumweights 3916
scalar NClients.srv.tcp.conn-31 tcpRcvQueueBytes:vector:mean 27.101123595505619
scalar NClients.srv.tcp.conn-31 tcpRcvQueueBytes:vector:stddev 328.66325643667517
scalar NClients.srv.tcp.conn-31 tcpRcvQueueBytes:vector:min 0
scalar NClients.srv.tcp.conn-31 tcpRcvQueueBytes:vector:max 6432
scalar NClients.srv.tcp.conn-31 tcpRcvQueueBytes:vector:starttime 3.1257566758050004
scalar NClients.srv.tcp.conn-31 tcpRcvQueueBytes:vector:endtime 4.0503910758050008
scalar NClients.srv.tcp.conn-31 tcpRcvQueueDrops:vector:count 0
scalar NClients.srv.tcp.conn-31 tcpRcvQueueDrops:vector:sum 0
scalar NClients.srv.tcp.conn-31 tcpRcvQueueDrops:vector:sumweights 0
scalar NClients.srv.tcp.conn-31 tcpRcvQueueDrops:vector:mean -nan
scalar NClients.srv.tcp.conn-31 tcpRcvQueueDrops:vector:stddev nan
scalar NClients.srv.tcp.conn-31 tcpRcvQueueDrops:vector:min inf
scalar NClients.srv.tcp.conn-31 tcpRcvQueueDrops:vector:max -inf
scalar NClients.srv.tcp.conn-31 tcpRcvQueueDrops:vector:starttime nan
scalar NClients.srv.tcp.conn-31 tcpRcvQueueDrops:vector:endtime nan
scalar NClients.srv.tcp.conn-31 tcpRcvPayloadBytes:vector:count 1959
scalar NClients.srv.tcp.conn-31 tcpRcvPayloadBytes:vector:sum 1048576
scalar NClients.srv.tcp.conn-31 tcpRcvPayloadBytes:vector:sumweights 1959
scalar NClients.srv.tcp.conn-31 tcpRcvPayloadBytes:vector:mean 535.26084737110773
scalar NClients.srv.tcp.conn-31 tcpRcvPayloadBytes:vector:stddev 19.1080165298889
scalar NClients.srv.tcp.conn-31 tcpRcvPayloadBytes:vector:min 0
scalar NClients.srv.tcp.conn-31 tcpRcvPayloadBytes:vector:max 536
scalar NClients.srv.tcp.conn-31 tcpRcvPayloadBytes:vector:starttime 3.1260710758050005
scalar NClients.srv.tcp.conn-31 tcpRcvPayloadBytes:vector:endtime 4.0507302758050008
scalar NClients.srv.tcp.conn-31 cwnd:vector:count 1
scalar NClients.srv.tcp.conn-31 cwnd:vector:sum 1072
scalar NClients.srv.tcp.conn-31 cwnd:vector:sumweights 1
scalar NClients.srv.tcp.conn-31 cwnd:vector:mean 1072
scalar NClients.srv.tcp.conn-31 cwnd:vector:stddev nan
scalar NClients.srv.tcp.conn-31 cwnd:vector:min 1072
scalar NClients.srv.tcp.conn-31 cwnd:vector:max 1072
scalar NClients.srv.tcp.conn-31 cwnd:vector:starttime 4.0507302758050008
scalar NClients.srv.tcp.conn-31 cwnd:vector:endtime 4.0507302758050008
scalar NClients.srv.tcp.conn-31 ssthresh:vector:count 1
scalar NClients.srv.tcp.conn-31 ssthresh:vector:sum 4294967295
scalar NClients.srv.tcp.conn-31 ssthresh:vector:sumweights 1
scalar NClients.srv.tcp.conn-31 ssthresh:vector:mean 4294967295
scalar NClients.srv.tcp.conn-31 ssthresh:vector:stddev nan
scalar NClients.srv.tcp.conn-31 ssthresh:vector:min 4294967295
scalar NClients.srv.tcp.conn-31 ssthresh:vector:max 4294967295
scalar NClients.srv.tcp.conn-31 ssthresh:vector:starttime 4.0507302758050008
scalar NClients.srv.tcp.conn-31 ssthresh:vector:endtime 4.0507302758050008
scalar NClients.srv.tcp.conn-31 rtt:vector:count 0
scalar NClients.srv.tcp.conn-31 rtt:vector:sum 0
scalar NClients.srv.tcp.conn-31 rtt:vector:sumweights 0
scalar NClients.srv.tcp.conn-31 rtt:vector:mean -nan
scalar NClients.srv.tcp.conn-31 rtt:vector:stddev nan
scalar NClients.srv.tcp.conn-31 rtt:vector:min inf
scalar NClients.srv.tcp.conn-31 rtt:vector:max -inf
scalar NClients.srv.tcp.conn-31 rtt:vector:starttime nan
scalar NClients.srv.tcp.conn-31 rtt:vector:endtime nan
scalar NClients.srv.tcp.conn-31 srtt:vector:count 0
scalar NClients.srv.tcp.conn-31 srtt:vector:sum 0
scalar NClients.srv.tcp.conn-31 srtt:vector:sumweights 0
scalar NClients.srv.tcp.conn-31 srtt:vector:mean -nan
scalar NClients.srv.tcp.conn-31 srtt:vector:stddev nan
scalar NClients.srv.tcp.conn-31 srtt:vector:min inf
scalar NClients.srv.tcp.conn-31 srtt:vector:max -inf
scalar NClients.srv.tcp.conn-31 srtt:vector:starttime nan
scalar NClients.srv.tcp.conn-31 srtt:vector:endtime nan
scalar NClients.srv.tcp.conn-31 rttvar:vector:count 0
scalar NClients.srv.tcp.conn-31 rttvar:vector:sum 0
scalar NClients.srv.tcp.conn-31 rttvar:vector:sumweights 0
scalar NClients.srv.tcp.conn-31 rttvar:vector:mean -nan
scalar NClients.srv.tcp.conn-31 rttvar:vector:stddev nan
scalar NClients.srv.tcp.conn-31 rttvar:vector:min inf
scalar NClients.srv.tcp.conn-31 rttvar:vector:max -inf
scalar NClients.srv.tcp.conn-31 rttvar:vector:starttime nan
scalar NClients.srv.tcp.conn-31 rttvar:vector:endtime nan
scalar NClients.srv.tcp.conn-31 rto:vector:count 0
scalar NClients.srv.tcp.conn-31 rto:vector:sum 0
scalar NClients.srv.tcp.conn-31 rto:vector:sumweights 0
scalar NClients.srv.tcp.conn-31 rto:vector:mean -nan
scalar NClients.srv.tcp.conn-31 rto:vector:stddev nan
scalar NClients.srv.tcp.conn-31 rto:vector:min inf
scalar NClients.srv.tcp.conn-31 rto:vector:max -inf
scalar NClients.srv.tcp.conn-31 rto:vector:starttime nan
scalar NClients.srv.tcp.conn-31 rto:vector:endtime nan
scalar NClients.srv.tcp.conn-31 numRtos:vector:count 0
scalar NClients.srv.tcp.conn-31 numRtos:vector:sum 0
scalar NClients.srv.tcp.conn-31 numRtos:vector:sumweights 0
scalar NClients.srv.tcp.conn-31 numRtos:vector:mean -nan
scalar NClients.srv.tcp.conn-31 numRtos:vector:stddev nan
scalar NClients.srv.tcp.conn-31 numRtos:vector:min inf
scalar NClients.srv.tcp.conn-31 numRtos:vector:max -inf
scalar NClients.srv.tcp.conn-31 numRtos:vector:starttime nan
scalar NClients.srv.tcp.conn-31 numRtos:vector:endtime nan
scalar NClients.srv.tcp.conn-31 load:vector:count 0
scalar NClients.srv.tcp.conn-31 load:vector:sum 0
scalar NClients.srv.tcp.conn-31 load:vector:sumweights 0
scalar NClients.srv.tcp.conn-31 load:vector:mean -nan
scalar NClients.srv.tcp.conn-31 load:vector:stddev nan
scalar NClients.srv.tcp.conn-31 load:vector:min inf
scalar NClients.srv.tcp.conn-31 load:vector:max -inf
scalar NClients.srv.tcp.conn-31 load:vector:starttime nan
scalar NClients.srv.tcp.conn-31 load:vector:endtime nan
scalar NClients.srv.tcp.conn-31 calcLoad:vector:count 0
scalar NClients.srv.tcp.conn-31 calcLoad:vector:sum 0
scalar NClients.srv.tcp.conn-31 calcLoad:vector:sumweights 0
scalar NClients.srv.tcp.conn-31 calcLoad:vector:mean -nan
scalar NClients.srv.tcp.conn-31 calcLoad:vector:stddev nan
scalar NClients.srv.tcp.conn-31 calcLoad:vector:min inf
scalar NClients.srv.tcp.conn-31 calcLoad:vector:max -inf
scalar NClients.srv.tcp.conn-31 calcLoad:vector:starttime nan
scalar NClients.srv.tcp.conn-31 calcLoad:vector:endtime nan
scalar NClients.srv.tcp.conn-31 markingProb:vector:count 0
scalar NClients.srv.tcp.conn-31 markingProb:vector:sum 0
scalar NClients.srv.tcp.conn-31 markingProb:vector:sumweights 0
scalar NClients.srv.tcp.conn-31 markingProb:vector:mean -nan
scalar NClients.srv.tcp.conn-31 markingProb:vector:stddev nan
scalar NClients.srv.tcp.conn-31 markingProb:vector:min inf
scalar NClients.srv.tcp.conn-31 markingProb:vector:max -inf
scalar NClients.srv.tcp.conn-31 markingProb:vector:starttime nan
scalar NClients.srv.tcp.conn-31 markingProb:vector:endtime nan
scalar NClients.srv.app[0].thread_31 packetReceived:vector(packetBytes):count 1939
scalar NClients.srv.app[0].thread_31 packetReceived:vector(packetBytes):sum 1048576
scalar NClients.srv.app[0].thread_31 packetReceived:vector(packetBytes):sumweights 1939
scalar NClients.srv.app[0].thread_31 packetReceived:vector(packetBytes):mean 540.78184631253225
scalar NClients.srv.app[0].thread_31 packetReceived:vector(packetBytes):stddev 163.50507817418463
scalar NClients.srv.app[0].thread_31 packetReceived:vector(packetBytes):min 160
scalar NClients.srv.app[0].thread_31 packetReceived:vector(packetBytes):max 6968
scalar NClients.srv.app[0].thread_31 packetReceived:vector(packetBytes):starttime 3.1278238758050008
scalar NClients.srv.app[0].thread_31 packetReceived:vector(packetBytes):endtime 4.0503910758050008
scalar NClients.srv.app[0].thread_31 endToEndDelay:vector:count 1957
scalar NClients.srv.app[0].thread_31 endToEndDelay:vector:sum 914.76731160000008
scalar NClients.srv.app[0].thread_31 endToEndDelay:vector:sumweights 1957
scalar NClients.srv.app[0].thread_31 endToEndDelay:vector:mean 0.46743347552376091
scalar NClients.srv.app[0].thread_31 endToEndDelay:vector:stddev 0.26520220032050268
scalar NClients.srv.app[0].thread_31 endToEndDelay:vector:min 0.0019035999999999999
scalar NClients.srv.app[0].thread_31 endToEndDelay:vector:max 0.92447079999999993
scalar NClients.srv.app[0].thread_31 endToEndDelay:vector:starttime 3.1278238758050008
scalar NClients.srv.app[0].thread_31 endToEndDelay:vector:endtime 4.0503910758050008

