version 3
run inet__lwip-0-20260707-14:02:23-2225231
attr configname inet__lwip
attr datetime 20260707-14:02:23
attr datetimef 20260707-140223
attr experiment inet__lwip
attr inifile omnetpp.ini
attr iterationvars ""
attr iterationvarsd ""
attr iterationvarsf ""
attr measurement ""
attr network NClients
attr processid 2225231
attr repetition 0
attr replication #0
attr resultdir results
attr runnumber 0
attr seedset 0
config **.param-recording false
config image-path /home/andras/projects/inet/images
config output-scalar-file results/omnetpp.ini-inet__lwip-#0.sca
config output-scalar-precision 17
config output-vector-file results/omnetpp.ini-inet__lwip-#0.vec
config output-vector-precision 17
config record-eventlog false
config sim-time-limit 3000s
config description "inet_TCP <---> TcpLwip"
config **.srv*.tcp.typename Tcp
config **.cli*.tcp.typename TcpLwip
config network NClients
config sim-time-limit 3000s
config *.n 4
config **.cli[*].numApps 1
config **.cli[*].app[*].typename TelnetApp
config **.cli[*].app[0].localAddress "\"\""
config **.cli[*].app[0].localPort -1
config **.cli[*].app[0].connectAddress "\"srv\""
config **.cli[*].app[0].connectPort 1000
config **.cli[*].app[0].startTime exponential(5s)
config **.cli[*].app[0].numCommands int(exponential(10))
config **.cli[*].app[0].commandLength intWithUnit(exponential(10B))
config **.cli[*].app[0].keyPressDelay exponential(0.1s)
config **.cli[*].app[0].commandOutputLength intWithUnit(exponential(40B))
config **.cli[*].app[0].thinkTime truncnormal(2s,3s)
config **.cli[*].app[0].idleInterval truncnormal(3600s,1200s)
config **.cli[*].app[0].reconnectInterval 30s
config **.srv.numApps 1
config **.srv.app[*].typename TcpGenericServerApp
config **.srv.app[0].localAddress "\"\""
config **.srv.app[0].localPort 1000
config **.srv.app[0].replyDelay 0s
config **.ppp[*].queue.typename DropTailQueue
config **.ppp[*].queue.packetCapacity 10
config **.channel.throughput.result-recording-modes +last

scalar NClients.r1.lo[0].lo rcvdPkFromHl:count 0
scalar NClients.r1.lo[0].lo rcvdPkFromHl:sum(packetBytes) 0
scalar NClients.r1.lo[0].lo passedUpPk:count 0
scalar NClients.r1.lo[0].lo passedUpPk:sum(packetBytes) 0
scalar NClients.r1.lo[0] packetDropInterfaceDown:count 0
scalar NClients.r1.lo[0] packetDropInterfaceDown:sum(packetBytes) 0
scalar NClients.r1.lo[0] packetDropNoCarrier:count 0
scalar NClients.r1.lo[0] packetDropNoCarrier:sum(packetBytes) 0
scalar NClients.r1.ppp[0].queue queueLength:last 0
scalar NClients.r1.ppp[0].queue queueLength:max 1
scalar NClients.r1.ppp[0].queue queueLength:timeavg 5.333333333333334e-10
scalar NClients.r1.ppp[0].queue queueBitLength:last 0
scalar NClients.r1.ppp[0].queue queueBitLength:max 320
scalar NClients.r1.ppp[0].queue queueBitLength:timeavg 1.7066666666666666e-07
scalar NClients.r1.ppp[0].queue outgoingPackets:count 106
scalar NClients.r1.ppp[0].queue outgoingPacketLengths:sum 37488
scalar NClients.r1.ppp[0].queue incomingPackets:count 106
scalar NClients.r1.ppp[0].queue incomingPacketLengths:sum 37488
scalar NClients.r1.ppp[0].queue droppedPacketsQueueOverflow:count 0
scalar NClients.r1.ppp[0].queue droppedPacketLengthsQueueOverflow:sum 0
scalar NClients.r1.ppp[0].ppp transmissionState:timeavg 1.4474666666666665e-06
scalar NClients.r1.ppp[0].ppp rxPkOk:count 92
scalar NClients.r1.ppp[0].ppp rxPkOk:sum(packetBytes) 4443
scalar NClients.r1.ppp[0].ppp txPk:count 106
scalar NClients.r1.ppp[0].ppp txPk:sum(packetBytes) 5428
scalar NClients.r1.ppp[0].ppp rcvdPkFromHl:count 106
scalar NClients.r1.ppp[0].ppp rcvdPkFromHl:sum(packetBytes) 4686
scalar NClients.r1.ppp[0].ppp passedUpPk:count 92
scalar NClients.r1.ppp[0].ppp passedUpPk:sum(packetBytes) 3799
scalar NClients.r1.ppp[0].ppp packetDropIncorrectlyReceived:count 0
scalar NClients.r1.ppp[0].ppp packetDropIncorrectlyReceived:sum(packetBytes) 0
scalar NClients.r1.ppp[0].ppp packetDropInterfaceDown:count 0
scalar NClients.r1.ppp[0].ppp packetDropInterfaceDown:sum(packetBytes) 0
scalar NClients.r1.ppp[0] packetDropInterfaceDown:count 0
scalar NClients.r1.ppp[0] packetDropInterfaceDown:sum(packetBytes) 0
scalar NClients.r1.ppp[0] packetDropNoCarrier:count 0
scalar NClients.r1.ppp[0] packetDropNoCarrier:sum(packetBytes) 0
scalar NClients.r1.ppp[1].queue queueLength:last 0
scalar NClients.r1.ppp[1].queue queueLength:max 0
scalar NClients.r1.ppp[1].queue queueLength:timeavg 0
scalar NClients.r1.ppp[1].queue queueBitLength:last 0
scalar NClients.r1.ppp[1].queue queueBitLength:max 0
scalar NClients.r1.ppp[1].queue queueBitLength:timeavg 0
scalar NClients.r1.ppp[1].queue outgoingPackets:count 16
scalar NClients.r1.ppp[1].queue outgoingPacketLengths:sum 5504
scalar NClients.r1.ppp[1].queue incomingPackets:count 16
scalar NClients.r1.ppp[1].queue incomingPacketLengths:sum 5504
scalar NClients.r1.ppp[1].queue droppedPacketsQueueOverflow:count 0
scalar NClients.r1.ppp[1].queue droppedPacketLengthsQueueOverflow:sum 0
scalar NClients.r1.ppp[1].ppp transmissionState:timeavg 2.133333333333333e-07
scalar NClients.r1.ppp[1].ppp rxPkOk:count 14
scalar NClients.r1.ppp[1].ppp rxPkOk:sum(packetBytes) 673
scalar NClients.r1.ppp[1].ppp txPk:count 16
scalar NClients.r1.ppp[1].ppp txPk:sum(packetBytes) 800
scalar NClients.r1.ppp[1].ppp rcvdPkFromHl:count 16
scalar NClients.r1.ppp[1].ppp rcvdPkFromHl:sum(packetBytes) 688
scalar NClients.r1.ppp[1].ppp passedUpPk:count 14
scalar NClients.r1.ppp[1].ppp passedUpPk:sum(packetBytes) 575
scalar NClients.r1.ppp[1].ppp packetDropIncorrectlyReceived:count 0
scalar NClients.r1.ppp[1].ppp packetDropIncorrectlyReceived:sum(packetBytes) 0
scalar NClients.r1.ppp[1].ppp packetDropInterfaceDown:count 0
scalar NClients.r1.ppp[1].ppp packetDropInterfaceDown:sum(packetBytes) 0
scalar NClients.r1.ppp[1] packetDropInterfaceDown:count 0
scalar NClients.r1.ppp[1] packetDropInterfaceDown:sum(packetBytes) 0
scalar NClients.r1.ppp[1] packetDropNoCarrier:count 0
scalar NClients.r1.ppp[1] packetDropNoCarrier:sum(packetBytes) 0
scalar NClients.r1.ppp[2].queue queueLength:last 0
scalar NClients.r1.ppp[2].queue queueLength:max 0
scalar NClients.r1.ppp[2].queue queueLength:timeavg 0
scalar NClients.r1.ppp[2].queue queueBitLength:last 0
scalar NClients.r1.ppp[2].queue queueBitLength:max 0
scalar NClients.r1.ppp[2].queue queueBitLength:timeavg 0
scalar NClients.r1.ppp[2].queue outgoingPackets:count 69
scalar NClients.r1.ppp[2].queue outgoingPacketLengths:sum 26120
scalar NClients.r1.ppp[2].queue incomingPackets:count 69
scalar NClients.r1.ppp[2].queue incomingPacketLengths:sum 26120
scalar NClients.r1.ppp[2].queue droppedPacketsQueueOverflow:count 0
scalar NClients.r1.ppp[2].queue droppedPacketLengthsQueueOverflow:sum 0
scalar NClients.r1.ppp[2].ppp transmissionState:timeavg 9.994666666666667e-07
scalar NClients.r1.ppp[2].ppp rxPkOk:count 63
scalar NClients.r1.ppp[2].ppp rxPkOk:sum(packetBytes) 3030
scalar NClients.r1.ppp[2].ppp txPk:count 69
scalar NClients.r1.ppp[2].ppp txPk:sum(packetBytes) 3748
scalar NClients.r1.ppp[2].ppp rcvdPkFromHl:count 69
scalar NClients.r1.ppp[2].ppp rcvdPkFromHl:sum(packetBytes) 3265
scalar NClients.r1.ppp[2].ppp passedUpPk:count 63
scalar NClients.r1.ppp[2].ppp passedUpPk:sum(packetBytes) 2589
scalar NClients.r1.ppp[2].ppp packetDropIncorrectlyReceived:count 0
scalar NClients.r1.ppp[2].ppp packetDropIncorrectlyReceived:sum(packetBytes) 0
scalar NClients.r1.ppp[2].ppp packetDropInterfaceDown:count 0
scalar NClients.r1.ppp[2].ppp packetDropInterfaceDown:sum(packetBytes) 0
scalar NClients.r1.ppp[2] packetDropInterfaceDown:count 0
scalar NClients.r1.ppp[2] packetDropInterfaceDown:sum(packetBytes) 0
scalar NClients.r1.ppp[2] packetDropNoCarrier:count 0
scalar NClients.r1.ppp[2] packetDropNoCarrier:sum(packetBytes) 0
scalar NClients.r1.ppp[3].queue queueLength:last 0
scalar NClients.r1.ppp[3].queue queueLength:max 0
scalar NClients.r1.ppp[3].queue queueLength:timeavg 0
scalar NClients.r1.ppp[3].queue queueBitLength:last 0
scalar NClients.r1.ppp[3].queue queueBitLength:max 0
scalar NClients.r1.ppp[3].queue queueBitLength:timeavg 0
scalar NClients.r1.ppp[3].queue outgoingPackets:count 24
scalar NClients.r1.ppp[3].queue outgoingPacketLengths:sum 8352
scalar NClients.r1.ppp[3].queue incomingPackets:count 24
scalar NClients.r1.ppp[3].queue incomingPacketLengths:sum 8352
scalar NClients.r1.ppp[3].queue droppedPacketsQueueOverflow:count 0
scalar NClients.r1.ppp[3].queue droppedPacketLengthsQueueOverflow:sum 0
scalar NClients.r1.ppp[3].ppp transmissionState:timeavg 3.232e-07
scalar NClients.r1.ppp[3].ppp rxPkOk:count 22
scalar NClients.r1.ppp[3].ppp rxPkOk:sum(packetBytes) 1063
scalar NClients.r1.ppp[3].ppp txPk:count 24
scalar NClients.r1.ppp[3].ppp txPk:sum(packetBytes) 1212
scalar NClients.r1.ppp[3].ppp rcvdPkFromHl:count 24
scalar NClients.r1.ppp[3].ppp rcvdPkFromHl:sum(packetBytes) 1044
scalar NClients.r1.ppp[3].ppp passedUpPk:count 22
scalar NClients.r1.ppp[3].ppp passedUpPk:sum(packetBytes) 909
scalar NClients.r1.ppp[3].ppp packetDropIncorrectlyReceived:count 0
scalar NClients.r1.ppp[3].ppp packetDropIncorrectlyReceived:sum(packetBytes) 0
scalar NClients.r1.ppp[3].ppp packetDropInterfaceDown:count 0
scalar NClients.r1.ppp[3].ppp packetDropInterfaceDown:sum(packetBytes) 0
scalar NClients.r1.ppp[3] packetDropInterfaceDown:count 0
scalar NClients.r1.ppp[3] packetDropInterfaceDown:sum(packetBytes) 0
scalar NClients.r1.ppp[3] packetDropNoCarrier:count 0
scalar NClients.r1.ppp[3] packetDropNoCarrier:sum(packetBytes) 0
scalar NClients.r1.ppp[4].queue queueLength:last 0
scalar NClients.r1.ppp[4].queue queueLength:max 3
scalar NClients.r1.ppp[4].queue queueLength:timeavg 3.2053333333333334e-07
scalar NClients.r1.ppp[4].queue queueBitLength:last 0
scalar NClients.r1.ppp[4].queue queueBitLength:max 1024
scalar NClients.r1.ppp[4].queue queueBitLength:timeavg 0.00010827306666666665
scalar NClients.r1.ppp[4].queue outgoingPackets:count 191
scalar NClients.r1.ppp[4].queue outgoingPacketLengths:sum 62976
scalar NClients.r1.ppp[4].queue incomingPackets:count 191
scalar NClients.r1.ppp[4].queue incomingPacketLengths:sum 62976
scalar NClients.r1.ppp[4].queue droppedPacketsQueueOverflow:count 0
scalar NClients.r1.ppp[4].queue droppedPacketLengthsQueueOverflow:sum 0
scalar NClients.r1.ppp[4].ppp transmissionState:timeavg 2.4557333333333335e-06
scalar NClients.r1.ppp[4].ppp rxPkOk:count 215
scalar NClients.r1.ppp[4].ppp rxPkOk:sum(packetBytes) 11188
scalar NClients.r1.ppp[4].ppp txPk:count 191
scalar NClients.r1.ppp[4].ppp txPk:sum(packetBytes) 9209
scalar NClients.r1.ppp[4].ppp rcvdPkFromHl:count 191
scalar NClients.r1.ppp[4].ppp rcvdPkFromHl:sum(packetBytes) 7872
scalar NClients.r1.ppp[4].ppp passedUpPk:count 215
scalar NClients.r1.ppp[4].ppp passedUpPk:sum(packetBytes) 9683
scalar NClients.r1.ppp[4].ppp packetDropIncorrectlyReceived:count 0
scalar NClients.r1.ppp[4].ppp packetDropIncorrectlyReceived:sum(packetBytes) 0
scalar NClients.r1.ppp[4].ppp packetDropInterfaceDown:count 0
scalar NClients.r1.ppp[4].ppp packetDropInterfaceDown:sum(packetBytes) 0
scalar NClients.r1.ppp[4] packetDropInterfaceDown:count 0
scalar NClients.r1.ppp[4] packetDropInterfaceDown:sum(packetBytes) 0
scalar NClients.r1.ppp[4] packetDropNoCarrier:count 0
scalar NClients.r1.ppp[4] packetDropNoCarrier:sum(packetBytes) 0
scalar NClients.r1.ipv4.ip packetDropAddressResolutionFailed:count 0
scalar NClients.r1.ipv4.ip packetDropAddressResolutionFailed:sum(packetBytes) 0
scalar NClients.r1.ipv4.ip packetDropHopLimitReached:count 0
scalar NClients.r1.ipv4.ip packetDropHopLimitReached:sum(packetBytes) 0
scalar NClients.r1.ipv4.ip packetDropForwardingDisabled:count 0
scalar NClients.r1.ipv4.ip packetDropForwardingDisabled:sum(packetBytes) 0
scalar NClients.r1.ipv4.ip packetDropLifetimeExpired:count 0
scalar NClients.r1.ipv4.ip packetDropLifetimeExpired:sum(packetBytes) 0
scalar NClients.r1.ipv4.ip packetDropNoInterfaceFound:count 0
scalar NClients.r1.ipv4.ip packetDropNoInterfaceFound:sum(packetBytes) 0
scalar NClients.r1.ipv4.ip packetDropNoRouteFound:count 0
scalar NClients.r1.ipv4.ip packetDropNoRouteFound:sum(packetBytes) 0
scalar NClients.r1.ipv4.ip packetDropUndefined:count 0
scalar NClients.r1.ipv4.ip packetDropUndefined:sum(packetBytes) 0
scalar NClients.r1.ipv4.arp arpResolutionFailed:count 0
scalar NClients.r1.ipv4.arp arpResolutionCompleted:count 0
scalar NClients.r1.ipv4.arp arpResolutionInitiated:count 0
scalar NClients.r1.ipv4.arp arpReplySent:count 0
scalar NClients.r1.ipv4.arp arpReplySent:sum(packetBytes) 0
scalar NClients.r1.ipv4.arp arpRequestSent:count 0
scalar NClients.r1.ipv4.arp arpRequestSent:sum(packetBytes) 0
scalar NClients.r2.lo[0].lo rcvdPkFromHl:count 0
scalar NClients.r2.lo[0].lo rcvdPkFromHl:sum(packetBytes) 0
scalar NClients.r2.lo[0].lo passedUpPk:count 0
scalar NClients.r2.lo[0].lo passedUpPk:sum(packetBytes) 0
scalar NClients.r2.lo[0] packetDropInterfaceDown:count 0
scalar NClients.r2.lo[0] packetDropInterfaceDown:sum(packetBytes) 0
scalar NClients.r2.lo[0] packetDropNoCarrier:count 0
scalar NClients.r2.lo[0] packetDropNoCarrier:sum(packetBytes) 0
scalar NClients.r2.ppp[0].queue queueLength:last 0
scalar NClients.r2.ppp[0].queue queueLength:max 2
scalar NClients.r2.ppp[0].queue queueLength:timeavg 1.7253333333333334e-07
scalar NClients.r2.ppp[0].queue queueBitLength:last 0
scalar NClients.r2.ppp[0].queue queueBitLength:max 648
scalar NClients.r2.ppp[0].queue queueBitLength:timeavg 5.7233066666666666e-05
scalar NClients.r2.ppp[0].queue outgoingPackets:count 215
scalar NClients.r2.ppp[0].queue outgoingPacketLengths:sum 77464
scalar NClients.r2.ppp[0].queue incomingPackets:count 215
scalar NClients.r2.ppp[0].queue incomingPacketLengths:sum 77464
scalar NClients.r2.ppp[0].queue droppedPacketsQueueOverflow:count 0
scalar NClients.r2.ppp[0].queue droppedPacketLengthsQueueOverflow:sum 0
scalar NClients.r2.ppp[0].ppp transmissionState:timeavg 2.9834666666666665e-06
scalar NClients.r2.ppp[0].ppp rxPkOk:count 191
scalar NClients.r2.ppp[0].ppp rxPkOk:sum(packetBytes) 9209
scalar NClients.r2.ppp[0].ppp txPk:count 215
scalar NClients.r2.ppp[0].ppp txPk:sum(packetBytes) 11188
scalar NClients.r2.ppp[0].ppp rcvdPkFromHl:count 215
scalar NClients.r2.ppp[0].ppp rcvdPkFromHl:sum(packetBytes) 9683
scalar NClients.r2.ppp[0].ppp passedUpPk:count 191
scalar NClients.r2.ppp[0].ppp passedUpPk:sum(packetBytes) 7872
scalar NClients.r2.ppp[0].ppp packetDropIncorrectlyReceived:count 0
scalar NClients.r2.ppp[0].ppp packetDropIncorrectlyReceived:sum(packetBytes) 0
scalar NClients.r2.ppp[0].ppp packetDropInterfaceDown:count 0
scalar NClients.r2.ppp[0].ppp packetDropInterfaceDown:sum(packetBytes) 0
scalar NClients.r2.ppp[0] packetDropInterfaceDown:count 0
scalar NClients.r2.ppp[0] packetDropInterfaceDown:sum(packetBytes) 0
scalar NClients.r2.ppp[0] packetDropNoCarrier:count 0
scalar NClients.r2.ppp[0] packetDropNoCarrier:sum(packetBytes) 0
scalar NClients.r2.ppp[1].queue queueLength:last 0
scalar NClients.r2.ppp[1].queue queueLength:max 1
scalar NClients.r2.ppp[1].queue queueLength:timeavg 1.0666666666666667e-09
scalar NClients.r2.ppp[1].queue queueBitLength:last 0
scalar NClients.r2.ppp[1].queue queueBitLength:max 344
scalar NClients.r2.ppp[1].queue queueBitLength:timeavg 3.669333333333333e-07
scalar NClients.r2.ppp[1].queue outgoingPackets:count 191
scalar NClients.r2.ppp[1].queue outgoingPacketLengths:sum 62976
scalar NClients.r2.ppp[1].queue incomingPackets:count 191
scalar NClients.r2.ppp[1].queue incomingPacketLengths:sum 62976
scalar NClients.r2.ppp[1].queue droppedPacketsQueueOverflow:count 0
scalar NClients.r2.ppp[1].queue droppedPacketLengthsQueueOverflow:sum 0
scalar NClients.r2.ppp[1].ppp transmissionState:timeavg 2.4557333333333335e-06
scalar NClients.r2.ppp[1].ppp rxPkOk:count 215
scalar NClients.r2.ppp[1].ppp rxPkOk:sum(packetBytes) 11188
scalar NClients.r2.ppp[1].ppp txPk:count 191
scalar NClients.r2.ppp[1].ppp txPk:sum(packetBytes) 9209
scalar NClients.r2.ppp[1].ppp rcvdPkFromHl:count 191
scalar NClients.r2.ppp[1].ppp rcvdPkFromHl:sum(packetBytes) 7872
scalar NClients.r2.ppp[1].ppp passedUpPk:count 215
scalar NClients.r2.ppp[1].ppp passedUpPk:sum(packetBytes) 9683
scalar NClients.r2.ppp[1].ppp packetDropIncorrectlyReceived:count 0
scalar NClients.r2.ppp[1].ppp packetDropIncorrectlyReceived:sum(packetBytes) 0
scalar NClients.r2.ppp[1].ppp packetDropInterfaceDown:count 0
scalar NClients.r2.ppp[1].ppp packetDropInterfaceDown:sum(packetBytes) 0
scalar NClients.r2.ppp[1] packetDropInterfaceDown:count 0
scalar NClients.r2.ppp[1] packetDropInterfaceDown:sum(packetBytes) 0
scalar NClients.r2.ppp[1] packetDropNoCarrier:count 0
scalar NClients.r2.ppp[1] packetDropNoCarrier:sum(packetBytes) 0
scalar NClients.r2.ipv4.ip packetDropAddressResolutionFailed:count 0
scalar NClients.r2.ipv4.ip packetDropAddressResolutionFailed:sum(packetBytes) 0
scalar NClients.r2.ipv4.ip packetDropHopLimitReached:count 0
scalar NClients.r2.ipv4.ip packetDropHopLimitReached:sum(packetBytes) 0
scalar NClients.r2.ipv4.ip packetDropForwardingDisabled:count 0
scalar NClients.r2.ipv4.ip packetDropForwardingDisabled:sum(packetBytes) 0
scalar NClients.r2.ipv4.ip packetDropLifetimeExpired:count 0
scalar NClients.r2.ipv4.ip packetDropLifetimeExpired:sum(packetBytes) 0
scalar NClients.r2.ipv4.ip packetDropNoInterfaceFound:count 0
scalar NClients.r2.ipv4.ip packetDropNoInterfaceFound:sum(packetBytes) 0
scalar NClients.r2.ipv4.ip packetDropNoRouteFound:count 0
scalar NClients.r2.ipv4.ip packetDropNoRouteFound:sum(packetBytes) 0
scalar NClients.r2.ipv4.ip packetDropUndefined:count 0
scalar NClients.r2.ipv4.ip packetDropUndefined:sum(packetBytes) 0
scalar NClients.r2.ipv4.arp arpResolutionFailed:count 0
scalar NClients.r2.ipv4.arp arpResolutionCompleted:count 0
scalar NClients.r2.ipv4.arp arpResolutionInitiated:count 0
scalar NClients.r2.ipv4.arp arpReplySent:count 0
scalar NClients.r2.ipv4.arp arpReplySent:sum(packetBytes) 0
scalar NClients.r2.ipv4.arp arpRequestSent:count 0
scalar NClients.r2.ipv4.arp arpRequestSent:sum(packetBytes) 0
scalar NClients.r3.lo[0].lo rcvdPkFromHl:count 0
scalar NClients.r3.lo[0].lo rcvdPkFromHl:sum(packetBytes) 0
scalar NClients.r3.lo[0].lo passedUpPk:count 0
scalar NClients.r3.lo[0].lo passedUpPk:sum(packetBytes) 0
scalar NClients.r3.lo[0] packetDropInterfaceDown:count 0
scalar NClients.r3.lo[0] packetDropInterfaceDown:sum(packetBytes) 0
scalar NClients.r3.lo[0] packetDropNoCarrier:count 0
scalar NClients.r3.lo[0] packetDropNoCarrier:sum(packetBytes) 0
scalar NClients.r3.ppp[0].queue queueLength:last 0
scalar NClients.r3.ppp[0].queue queueLength:max 2
scalar NClients.r3.ppp[0].queue queueLength:timeavg 1.7199999999999998e-07
scalar NClients.r3.ppp[0].queue queueBitLength:last 0
scalar NClients.r3.ppp[0].queue queueBitLength:max 648
scalar NClients.r3.ppp[0].queue queueBitLength:timeavg 5.70624e-05
scalar NClients.r3.ppp[0].queue outgoingPackets:count 215
scalar NClients.r3.ppp[0].queue outgoingPacketLengths:sum 77464
scalar NClients.r3.ppp[0].queue incomingPackets:count 215
scalar NClients.r3.ppp[0].queue incomingPacketLengths:sum 77464
scalar NClients.r3.ppp[0].queue droppedPacketsQueueOverflow:count 0
scalar NClients.r3.ppp[0].queue droppedPacketLengthsQueueOverflow:sum 0
scalar NClients.r3.ppp[0].ppp transmissionState:timeavg 2.9834666666666665e-06
scalar NClients.r3.ppp[0].ppp rxPkOk:count 191
scalar NClients.r3.ppp[0].ppp rxPkOk:sum(packetBytes) 9209
scalar NClients.r3.ppp[0].ppp txPk:count 215
scalar NClients.r3.ppp[0].ppp txPk:sum(packetBytes) 11188
scalar NClients.r3.ppp[0].ppp rcvdPkFromHl:count 215
scalar NClients.r3.ppp[0].ppp rcvdPkFromHl:sum(packetBytes) 9683
scalar NClients.r3.ppp[0].ppp passedUpPk:count 191
scalar NClients.r3.ppp[0].ppp passedUpPk:sum(packetBytes) 7872
scalar NClients.r3.ppp[0].ppp packetDropIncorrectlyReceived:count 0
scalar NClients.r3.ppp[0].ppp packetDropIncorrectlyReceived:sum(packetBytes) 0
scalar NClients.r3.ppp[0].ppp packetDropInterfaceDown:count 0
scalar NClients.r3.ppp[0].ppp packetDropInterfaceDown:sum(packetBytes) 0
scalar NClients.r3.ppp[0] packetDropInterfaceDown:count 0
scalar NClients.r3.ppp[0] packetDropInterfaceDown:sum(packetBytes) 0
scalar NClients.r3.ppp[0] packetDropNoCarrier:count 0
scalar NClients.r3.ppp[0] packetDropNoCarrier:sum(packetBytes) 0
scalar NClients.r3.ppp[1].queue queueLength:last 0
scalar NClients.r3.ppp[1].queue queueLength:max 1
scalar NClients.r3.ppp[1].queue queueLength:timeavg 1.0666666666666667e-09
scalar NClients.r3.ppp[1].queue queueBitLength:last 0
scalar NClients.r3.ppp[1].queue queueBitLength:max 344
scalar NClients.r3.ppp[1].queue queueBitLength:timeavg 3.669333333333333e-07
scalar NClients.r3.ppp[1].queue outgoingPackets:count 191
scalar NClients.r3.ppp[1].queue outgoingPacketLengths:sum 62976
scalar NClients.r3.ppp[1].queue incomingPackets:count 191
scalar NClients.r3.ppp[1].queue incomingPacketLengths:sum 62976
scalar NClients.r3.ppp[1].queue droppedPacketsQueueOverflow:count 0
scalar NClients.r3.ppp[1].queue droppedPacketLengthsQueueOverflow:sum 0
scalar NClients.r3.ppp[1].ppp transmissionState:timeavg 2.4557333333333335e-06
scalar NClients.r3.ppp[1].ppp rxPkOk:count 215
scalar NClients.r3.ppp[1].ppp rxPkOk:sum(packetBytes) 11188
scalar NClients.r3.ppp[1].ppp txPk:count 191
scalar NClients.r3.ppp[1].ppp txPk:sum(packetBytes) 9209
scalar NClients.r3.ppp[1].ppp rcvdPkFromHl:count 191
scalar NClients.r3.ppp[1].ppp rcvdPkFromHl:sum(packetBytes) 7872
scalar NClients.r3.ppp[1].ppp passedUpPk:count 215
scalar NClients.r3.ppp[1].ppp passedUpPk:sum(packetBytes) 9683
scalar NClients.r3.ppp[1].ppp packetDropIncorrectlyReceived:count 0
scalar NClients.r3.ppp[1].ppp packetDropIncorrectlyReceived:sum(packetBytes) 0
scalar NClients.r3.ppp[1].ppp packetDropInterfaceDown:count 0
scalar NClients.r3.ppp[1].ppp packetDropInterfaceDown:sum(packetBytes) 0
scalar NClients.r3.ppp[1] packetDropInterfaceDown:count 0
scalar NClients.r3.ppp[1] packetDropInterfaceDown:sum(packetBytes) 0
scalar NClients.r3.ppp[1] packetDropNoCarrier:count 0
scalar NClients.r3.ppp[1] packetDropNoCarrier:sum(packetBytes) 0
scalar NClients.r3.ipv4.ip packetDropAddressResolutionFailed:count 0
scalar NClients.r3.ipv4.ip packetDropAddressResolutionFailed:sum(packetBytes) 0
scalar NClients.r3.ipv4.ip packetDropHopLimitReached:count 0
scalar NClients.r3.ipv4.ip packetDropHopLimitReached:sum(packetBytes) 0
scalar NClients.r3.ipv4.ip packetDropForwardingDisabled:count 0
scalar NClients.r3.ipv4.ip packetDropForwardingDisabled:sum(packetBytes) 0
scalar NClients.r3.ipv4.ip packetDropLifetimeExpired:count 0
scalar NClients.r3.ipv4.ip packetDropLifetimeExpired:sum(packetBytes) 0
scalar NClients.r3.ipv4.ip packetDropNoInterfaceFound:count 0
scalar NClients.r3.ipv4.ip packetDropNoInterfaceFound:sum(packetBytes) 0
scalar NClients.r3.ipv4.ip packetDropNoRouteFound:count 0
scalar NClients.r3.ipv4.ip packetDropNoRouteFound:sum(packetBytes) 0
scalar NClients.r3.ipv4.ip packetDropUndefined:count 0
scalar NClients.r3.ipv4.ip packetDropUndefined:sum(packetBytes) 0
scalar NClients.r3.ipv4.arp arpResolutionFailed:count 0
scalar NClients.r3.ipv4.arp arpResolutionCompleted:count 0
scalar NClients.r3.ipv4.arp arpResolutionInitiated:count 0
scalar NClients.r3.ipv4.arp arpReplySent:count 0
scalar NClients.r3.ipv4.arp arpReplySent:sum(packetBytes) 0
scalar NClients.r3.ipv4.arp arpRequestSent:count 0
scalar NClients.r3.ipv4.arp arpRequestSent:sum(packetBytes) 0
scalar NClients.cli[0].lo[0].lo rcvdPkFromHl:count 0
scalar NClients.cli[0].lo[0].lo rcvdPkFromHl:sum(packetBytes) 0
scalar NClients.cli[0].lo[0].lo passedUpPk:count 0
scalar NClients.cli[0].lo[0].lo passedUpPk:sum(packetBytes) 0
scalar NClients.cli[0].lo[0] packetDropInterfaceDown:count 0
scalar NClients.cli[0].lo[0] packetDropInterfaceDown:sum(packetBytes) 0
scalar NClients.cli[0].lo[0] packetDropNoCarrier:count 0
scalar NClients.cli[0].lo[0] packetDropNoCarrier:sum(packetBytes) 0
scalar NClients.cli[0].ppp[0].queue queueLength:last 0
scalar NClients.cli[0].ppp[0].queue queueLength:max 1
scalar NClients.cli[0].ppp[0].queue queueLength:timeavg 1.2533333333333332e-07
scalar NClients.cli[0].ppp[0].queue queueBitLength:last 0
scalar NClients.cli[0].ppp[0].queue queueBitLength:max 368
scalar NClients.cli[0].ppp[0].queue queueBitLength:timeavg 4.2914133333333336e-05
scalar NClients.cli[0].ppp[0].queue outgoingPackets:count 92
scalar NClients.cli[0].ppp[0].queue outgoingPacketLengths:sum 30392
scalar NClients.cli[0].ppp[0].queue incomingPackets:count 92
scalar NClients.cli[0].ppp[0].queue incomingPacketLengths:sum 30392
scalar NClients.cli[0].ppp[0].queue droppedPacketsQueueOverflow:count 0
scalar NClients.cli[0].ppp[0].queue droppedPacketLengthsQueueOverflow:sum 0
scalar NClients.cli[0].ppp[0].ppp transmissionState:timeavg 1.1848e-06
scalar NClients.cli[0].ppp[0].ppp rxPkOk:count 106
scalar NClients.cli[0].ppp[0].ppp rxPkOk:sum(packetBytes) 5428
scalar NClients.cli[0].ppp[0].ppp txPk:count 92
scalar NClients.cli[0].ppp[0].ppp txPk:sum(packetBytes) 4443
scalar NClients.cli[0].ppp[0].ppp rcvdPkFromHl:count 92
scalar NClients.cli[0].ppp[0].ppp rcvdPkFromHl:sum(packetBytes) 3799
scalar NClients.cli[0].ppp[0].ppp passedUpPk:count 106
scalar NClients.cli[0].ppp[0].ppp passedUpPk:sum(packetBytes) 4686
scalar NClients.cli[0].ppp[0].ppp packetDropIncorrectlyReceived:count 0
scalar NClients.cli[0].ppp[0].ppp packetDropIncorrectlyReceived:sum(packetBytes) 0
scalar NClients.cli[0].ppp[0].ppp packetDropInterfaceDown:count 0
scalar NClients.cli[0].ppp[0].ppp packetDropInterfaceDown:sum(packetBytes) 0
scalar NClients.cli[0].ppp[0] packetDropInterfaceDown:count 0
scalar NClients.cli[0].ppp[0] packetDropInterfaceDown:sum(packetBytes) 0
scalar NClients.cli[0].ppp[0] packetDropNoCarrier:count 0
scalar NClients.cli[0].ppp[0] packetDropNoCarrier:sum(packetBytes) 0
scalar NClients.cli[0].ipv4.ip packetDropAddressResolutionFailed:count 0
scalar NClients.cli[0].ipv4.ip packetDropAddressResolutionFailed:sum(packetBytes) 0
scalar NClients.cli[0].ipv4.ip packetDropHopLimitReached:count 0
scalar NClients.cli[0].ipv4.ip packetDropHopLimitReached:sum(packetBytes) 0
scalar NClients.cli[0].ipv4.ip packetDropForwardingDisabled:count 0
scalar NClients.cli[0].ipv4.ip packetDropForwardingDisabled:sum(packetBytes) 0
scalar NClients.cli[0].ipv4.ip packetDropLifetimeExpired:count 0
scalar NClients.cli[0].ipv4.ip packetDropLifetimeExpired:sum(packetBytes) 0
scalar NClients.cli[0].ipv4.ip packetDropNoInterfaceFound:count 0
scalar NClients.cli[0].ipv4.ip packetDropNoInterfaceFound:sum(packetBytes) 0
scalar NClients.cli[0].ipv4.ip packetDropNoRouteFound:count 0
scalar NClients.cli[0].ipv4.ip packetDropNoRouteFound:sum(packetBytes) 0
scalar NClients.cli[0].ipv4.ip packetDropUndefined:count 0
scalar NClients.cli[0].ipv4.ip packetDropUndefined:sum(packetBytes) 0
scalar NClients.cli[0].ipv4.arp arpResolutionFailed:count 0
scalar NClients.cli[0].ipv4.arp arpResolutionCompleted:count 0
scalar NClients.cli[0].ipv4.arp arpResolutionInitiated:count 0
scalar NClients.cli[0].ipv4.arp arpReplySent:count 0
scalar NClients.cli[0].ipv4.arp arpReplySent:sum(packetBytes) 0
scalar NClients.cli[0].ipv4.arp arpRequestSent:count 0
scalar NClients.cli[0].ipv4.arp arpRequestSent:sum(packetBytes) 0
scalar NClients.cli[0].udp packetReceived:count 0
scalar NClients.cli[0].udp packetReceived:sum(packetBytes) 0
scalar NClients.cli[0].udp packetSent:count 0
scalar NClients.cli[0].udp packetSent:sum(packetBytes) 0
scalar NClients.cli[0].udp passedUpPk:count 0
scalar NClients.cli[0].udp droppedPkWrongPort:count 0
scalar NClients.cli[0].udp droppedPkBadChecksum:count 0
scalar NClients.cli[0].app[0] packetReceived:count 62
scalar NClients.cli[0].app[0] packetReceived:sum(packetBytes) 438
scalar NClients.cli[0].app[0] packetSent:count 111
scalar NClients.cli[0].app[0] packetSent:sum(packetBytes) 111
scalar NClients.cli[0].app[0] numActiveSessions:max 1
scalar NClients.cli[0].app[0] numActiveSessions:timeavg 0.018682753623044664
scalar NClients.cli[0].app[0] numSessions:last 2
scalar NClients.cli[1].lo[0].lo rcvdPkFromHl:count 0
scalar NClients.cli[1].lo[0].lo rcvdPkFromHl:sum(packetBytes) 0
scalar NClients.cli[1].lo[0].lo passedUpPk:count 0
scalar NClients.cli[1].lo[0].lo passedUpPk:sum(packetBytes) 0
scalar NClients.cli[1].lo[0] packetDropInterfaceDown:count 0
scalar NClients.cli[1].lo[0] packetDropInterfaceDown:sum(packetBytes) 0
scalar NClients.cli[1].lo[0] packetDropNoCarrier:count 0
scalar NClients.cli[1].lo[0] packetDropNoCarrier:sum(packetBytes) 0
scalar NClients.cli[1].ppp[0].queue queueLength:last 0
scalar NClients.cli[1].ppp[0].queue queueLength:max 1
scalar NClients.cli[1].ppp[0].queue queueLength:timeavg 1.2533333333333333e-08
scalar NClients.cli[1].ppp[0].queue queueBitLength:last 0
scalar NClients.cli[1].ppp[0].queue queueBitLength:max 336
scalar NClients.cli[1].ppp[0].queue queueBitLength:timeavg 4.2112e-06
scalar NClients.cli[1].ppp[0].queue outgoingPackets:count 14
scalar NClients.cli[1].ppp[0].queue outgoingPacketLengths:sum 4600
scalar NClients.cli[1].ppp[0].queue incomingPackets:count 14
scalar NClients.cli[1].ppp[0].queue incomingPacketLengths:sum 4600
scalar NClients.cli[1].ppp[0].queue droppedPacketsQueueOverflow:count 0
scalar NClients.cli[1].ppp[0].queue droppedPacketLengthsQueueOverflow:sum 0
scalar NClients.cli[1].ppp[0].ppp transmissionState:timeavg 1.7946666666666666e-07
scalar NClients.cli[1].ppp[0].ppp rxPkOk:count 16
scalar NClients.cli[1].ppp[0].ppp rxPkOk:sum(packetBytes) 800
scalar NClients.cli[1].ppp[0].ppp txPk:count 14
scalar NClients.cli[1].ppp[0].ppp txPk:sum(packetBytes) 673
scalar NClients.cli[1].ppp[0].ppp rcvdPkFromHl:count 14
scalar NClients.cli[1].ppp[0].ppp rcvdPkFromHl:sum(packetBytes) 575
scalar NClients.cli[1].ppp[0].ppp passedUpPk:count 16
scalar NClients.cli[1].ppp[0].ppp passedUpPk:sum(packetBytes) 688
scalar NClients.cli[1].ppp[0].ppp packetDropIncorrectlyReceived:count 0
scalar NClients.cli[1].ppp[0].ppp packetDropIncorrectlyReceived:sum(packetBytes) 0
scalar NClients.cli[1].ppp[0].ppp packetDropInterfaceDown:count 0
scalar NClients.cli[1].ppp[0].ppp packetDropInterfaceDown:sum(packetBytes) 0
scalar NClients.cli[1].ppp[0] packetDropInterfaceDown:count 0
scalar NClients.cli[1].ppp[0] packetDropInterfaceDown:sum(packetBytes) 0
scalar NClients.cli[1].ppp[0] packetDropNoCarrier:count 0
scalar NClients.cli[1].ppp[0] packetDropNoCarrier:sum(packetBytes) 0
scalar NClients.cli[1].ipv4.ip packetDropAddressResolutionFailed:count 0
scalar NClients.cli[1].ipv4.ip packetDropAddressResolutionFailed:sum(packetBytes) 0
scalar NClients.cli[1].ipv4.ip packetDropHopLimitReached:count 0
scalar NClients.cli[1].ipv4.ip packetDropHopLimitReached:sum(packetBytes) 0
scalar NClients.cli[1].ipv4.ip packetDropForwardingDisabled:count 0
scalar NClients.cli[1].ipv4.ip packetDropForwardingDisabled:sum(packetBytes) 0
scalar NClients.cli[1].ipv4.ip packetDropLifetimeExpired:count 0
scalar NClients.cli[1].ipv4.ip packetDropLifetimeExpired:sum(packetBytes) 0
scalar NClients.cli[1].ipv4.ip packetDropNoInterfaceFound:count 0
scalar NClients.cli[1].ipv4.ip packetDropNoInterfaceFound:sum(packetBytes) 0
scalar NClients.cli[1].ipv4.ip packetDropNoRouteFound:count 0
scalar NClients.cli[1].ipv4.ip packetDropNoRouteFound:sum(packetBytes) 0
scalar NClients.cli[1].ipv4.ip packetDropUndefined:count 0
scalar NClients.cli[1].ipv4.ip packetDropUndefined:sum(packetBytes) 0
scalar NClients.cli[1].ipv4.arp arpResolutionFailed:count 0
scalar NClients.cli[1].ipv4.arp arpResolutionCompleted:count 0
scalar NClients.cli[1].ipv4.arp arpResolutionInitiated:count 0
scalar NClients.cli[1].ipv4.arp arpReplySent:count 0
scalar NClients.cli[1].ipv4.arp arpReplySent:sum(packetBytes) 0
scalar NClients.cli[1].ipv4.arp arpRequestSent:count 0
scalar NClients.cli[1].ipv4.arp arpRequestSent:sum(packetBytes) 0
scalar NClients.cli[1].udp packetReceived:count 0
scalar NClients.cli[1].udp packetReceived:sum(packetBytes) 0
scalar NClients.cli[1].udp packetSent:count 0
scalar NClients.cli[1].udp packetSent:sum(packetBytes) 0
scalar NClients.cli[1].udp passedUpPk:count 0
scalar NClients.cli[1].udp droppedPkWrongPort:count 0
scalar NClients.cli[1].udp droppedPkBadChecksum:count 0
scalar NClients.cli[1].app[0] packetReceived:count 8
scalar NClients.cli[1].app[0] packetReceived:sum(packetBytes) 44
scalar NClients.cli[1].app[0] packetSent:count 11
scalar NClients.cli[1].app[0] packetSent:sum(packetBytes) 11
scalar NClients.cli[1].app[0] numActiveSessions:max 1
scalar NClients.cli[1].app[0] numActiveSessions:timeavg 0.003070297094766
scalar NClients.cli[1].app[0] numSessions:last 1
scalar NClients.cli[2].lo[0].lo rcvdPkFromHl:count 0
scalar NClients.cli[2].lo[0].lo rcvdPkFromHl:sum(packetBytes) 0
scalar NClients.cli[2].lo[0].lo passedUpPk:count 0
scalar NClients.cli[2].lo[0].lo passedUpPk:sum(packetBytes) 0
scalar NClients.cli[2].lo[0] packetDropInterfaceDown:count 0
scalar NClients.cli[2].lo[0] packetDropInterfaceDown:sum(packetBytes) 0
scalar NClients.cli[2].lo[0] packetDropNoCarrier:count 0
scalar NClients.cli[2].lo[0] packetDropNoCarrier:sum(packetBytes) 0
scalar NClients.cli[2].ppp[0].queue queueLength:last 0
scalar NClients.cli[2].ppp[0].queue queueLength:max 1
scalar NClients.cli[2].ppp[0].queue queueLength:timeavg 2.5066666666666666e-08
scalar NClients.cli[2].ppp[0].queue queueBitLength:last 0
scalar NClients.cli[2].ppp[0].queue queueBitLength:max 344
scalar NClients.cli[2].ppp[0].queue queueBitLength:timeavg 8.4224e-06
scalar NClients.cli[2].ppp[0].queue outgoingPackets:count 63
scalar NClients.cli[2].ppp[0].queue outgoingPacketLengths:sum 20712
scalar NClients.cli[2].ppp[0].queue incomingPackets:count 63
scalar NClients.cli[2].ppp[0].queue incomingPacketLengths:sum 20712
scalar NClients.cli[2].ppp[0].queue droppedPacketsQueueOverflow:count 0
scalar NClients.cli[2].ppp[0].queue droppedPacketLengthsQueueOverflow:sum 0
scalar NClients.cli[2].ppp[0].ppp transmissionState:timeavg 8.079999999999999e-07
scalar NClients.cli[2].ppp[0].ppp rxPkOk:count 69
scalar NClients.cli[2].ppp[0].ppp rxPkOk:sum(packetBytes) 3748
scalar NClients.cli[2].ppp[0].ppp txPk:count 63
scalar NClients.cli[2].ppp[0].ppp txPk:sum(packetBytes) 3030
scalar NClients.cli[2].ppp[0].ppp rcvdPkFromHl:count 63
scalar NClients.cli[2].ppp[0].ppp rcvdPkFromHl:sum(packetBytes) 2589
scalar NClients.cli[2].ppp[0].ppp passedUpPk:count 69
scalar NClients.cli[2].ppp[0].ppp passedUpPk:sum(packetBytes) 3265
scalar NClients.cli[2].ppp[0].ppp packetDropIncorrectlyReceived:count 0
scalar NClients.cli[2].ppp[0].ppp packetDropIncorrectlyReceived:sum(packetBytes) 0
scalar NClients.cli[2].ppp[0].ppp packetDropInterfaceDown:count 0
scalar NClients.cli[2].ppp[0].ppp packetDropInterfaceDown:sum(packetBytes) 0
scalar NClients.cli[2].ppp[0] packetDropInterfaceDown:count 0
scalar NClients.cli[2].ppp[0] packetDropInterfaceDown:sum(packetBytes) 0
scalar NClients.cli[2].ppp[0] packetDropNoCarrier:count 0
scalar NClients.cli[2].ppp[0] packetDropNoCarrier:sum(packetBytes) 0
scalar NClients.cli[2].ipv4.ip packetDropAddressResolutionFailed:count 0
scalar NClients.cli[2].ipv4.ip packetDropAddressResolutionFailed:sum(packetBytes) 0
scalar NClients.cli[2].ipv4.ip packetDropHopLimitReached:count 0
scalar NClients.cli[2].ipv4.ip packetDropHopLimitReached:sum(packetBytes) 0
scalar NClients.cli[2].ipv4.ip packetDropForwardingDisabled:count 0
scalar NClients.cli[2].ipv4.ip packetDropForwardingDisabled:sum(packetBytes) 0
scalar NClients.cli[2].ipv4.ip packetDropLifetimeExpired:count 0
scalar NClients.cli[2].ipv4.ip packetDropLifetimeExpired:sum(packetBytes) 0
scalar NClients.cli[2].ipv4.ip packetDropNoInterfaceFound:count 0
scalar NClients.cli[2].ipv4.ip packetDropNoInterfaceFound:sum(packetBytes) 0
scalar NClients.cli[2].ipv4.ip packetDropNoRouteFound:count 0
scalar NClients.cli[2].ipv4.ip packetDropNoRouteFound:sum(packetBytes) 0
scalar NClients.cli[2].ipv4.ip packetDropUndefined:count 0
scalar NClients.cli[2].ipv4.ip packetDropUndefined:sum(packetBytes) 0
scalar NClients.cli[2].ipv4.arp arpResolutionFailed:count 0
scalar NClients.cli[2].ipv4.arp arpResolutionCompleted:count 0
scalar NClients.cli[2].ipv4.arp arpResolutionInitiated:count 0
scalar NClients.cli[2].ipv4.arp arpReplySent:count 0
scalar NClients.cli[2].ipv4.arp arpReplySent:sum(packetBytes) 0
scalar NClients.cli[2].ipv4.arp arpRequestSent:count 0
scalar NClients.cli[2].ipv4.arp arpRequestSent:sum(packetBytes) 0
scalar NClients.cli[2].udp packetReceived:count 0
scalar NClients.cli[2].udp packetReceived:sum(packetBytes) 0
scalar NClients.cli[2].udp packetSent:count 0
scalar NClients.cli[2].udp packetSent:sum(packetBytes) 0
scalar NClients.cli[2].udp passedUpPk:count 0
scalar NClients.cli[2].udp droppedPkWrongPort:count 0
scalar NClients.cli[2].udp droppedPkBadChecksum:count 0
scalar NClients.cli[2].app[0] packetReceived:count 41
scalar NClients.cli[2].app[0] packetReceived:sum(packetBytes) 501
scalar NClients.cli[2].app[0] packetSent:count 65
scalar NClients.cli[2].app[0] packetSent:sum(packetBytes) 65
scalar NClients.cli[2].app[0] numActiveSessions:max 1
scalar NClients.cli[2].app[0] numActiveSessions:timeavg 0.013283635822751667
scalar NClients.cli[2].app[0] numSessions:last 1
scalar NClients.cli[3].lo[0].lo rcvdPkFromHl:count 0
scalar NClients.cli[3].lo[0].lo rcvdPkFromHl:sum(packetBytes) 0
scalar NClients.cli[3].lo[0].lo passedUpPk:count 0
scalar NClients.cli[3].lo[0].lo passedUpPk:sum(packetBytes) 0
scalar NClients.cli[3].lo[0] packetDropInterfaceDown:count 0
scalar NClients.cli[3].lo[0] packetDropInterfaceDown:sum(packetBytes) 0
scalar NClients.cli[3].lo[0] packetDropNoCarrier:count 0
scalar NClients.cli[3].lo[0] packetDropNoCarrier:sum(packetBytes) 0
scalar NClients.cli[3].ppp[0].queue queueLength:last 0
scalar NClients.cli[3].ppp[0].queue queueLength:max 1
scalar NClients.cli[3].ppp[0].queue queueLength:timeavg 2.5066666666666666e-08
scalar NClients.cli[3].ppp[0].queue queueBitLength:last 0
scalar NClients.cli[3].ppp[0].queue queueBitLength:max 344
scalar NClients.cli[3].ppp[0].queue queueBitLength:timeavg 8.622933333333333e-06
scalar NClients.cli[3].ppp[0].queue outgoingPackets:count 22
scalar NClients.cli[3].ppp[0].queue outgoingPacketLengths:sum 7272
scalar NClients.cli[3].ppp[0].queue incomingPackets:count 22
scalar NClients.cli[3].ppp[0].queue incomingPacketLengths:sum 7272
scalar NClients.cli[3].ppp[0].queue droppedPacketsQueueOverflow:count 0
scalar NClients.cli[3].ppp[0].queue droppedPacketLengthsQueueOverflow:sum 0
scalar NClients.cli[3].ppp[0].ppp transmissionState:timeavg 2.8346666666666666e-07
scalar NClients.cli[3].ppp[0].ppp rxPkOk:count 24
scalar NClients.cli[3].ppp[0].ppp rxPkOk:sum(packetBytes) 1212
scalar NClients.cli[3].ppp[0].ppp txPk:count 22
scalar NClients.cli[3].ppp[0].ppp txPk:sum(packetBytes) 1063
scalar NClients.cli[3].ppp[0].ppp rcvdPkFromHl:count 22
scalar NClients.cli[3].ppp[0].ppp rcvdPkFromHl:sum(packetBytes) 909
scalar NClients.cli[3].ppp[0].ppp passedUpPk:count 24
scalar NClients.cli[3].ppp[0].ppp passedUpPk:sum(packetBytes) 1044
scalar NClients.cli[3].ppp[0].ppp packetDropIncorrectlyReceived:count 0
scalar NClients.cli[3].ppp[0].ppp packetDropIncorrectlyReceived:sum(packetBytes) 0
scalar NClients.cli[3].ppp[0].ppp packetDropInterfaceDown:count 0
scalar NClients.cli[3].ppp[0].ppp packetDropInterfaceDown:sum(packetBytes) 0
scalar NClients.cli[3].ppp[0] packetDropInterfaceDown:count 0
scalar NClients.cli[3].ppp[0] packetDropInterfaceDown:sum(packetBytes) 0
scalar NClients.cli[3].ppp[0] packetDropNoCarrier:count 0
scalar NClients.cli[3].ppp[0] packetDropNoCarrier:sum(packetBytes) 0
scalar NClients.cli[3].ipv4.ip packetDropAddressResolutionFailed:count 0
scalar NClients.cli[3].ipv4.ip packetDropAddressResolutionFailed:sum(packetBytes) 0
scalar NClients.cli[3].ipv4.ip packetDropHopLimitReached:count 0
scalar NClients.cli[3].ipv4.ip packetDropHopLimitReached:sum(packetBytes) 0
scalar NClients.cli[3].ipv4.ip packetDropForwardingDisabled:count 0
scalar NClients.cli[3].ipv4.ip packetDropForwardingDisabled:sum(packetBytes) 0
scalar NClients.cli[3].ipv4.ip packetDropLifetimeExpired:count 0
scalar NClients.cli[3].ipv4.ip packetDropLifetimeExpired:sum(packetBytes) 0
scalar NClients.cli[3].ipv4.ip packetDropNoInterfaceFound:count 0
scalar NClients.cli[3].ipv4.ip packetDropNoInterfaceFound:sum(packetBytes) 0
scalar NClients.cli[3].ipv4.ip packetDropNoRouteFound:count 0
scalar NClients.cli[3].ipv4.ip packetDropNoRouteFound:sum(packetBytes) 0
scalar NClients.cli[3].ipv4.ip packetDropUndefined:count 0
scalar NClients.cli[3].ipv4.ip packetDropUndefined:sum(packetBytes) 0
scalar NClients.cli[3].ipv4.arp arpResolutionFailed:count 0
scalar NClients.cli[3].ipv4.arp arpResolutionCompleted:count 0
scalar NClients.cli[3].ipv4.arp arpResolutionInitiated:count 0
scalar NClients.cli[3].ipv4.arp arpReplySent:count 0
scalar NClients.cli[3].ipv4.arp arpReplySent:sum(packetBytes) 0
scalar NClients.cli[3].ipv4.arp arpRequestSent:count 0
scalar NClients.cli[3].ipv4.arp arpRequestSent:sum(packetBytes) 0
scalar NClients.cli[3].udp packetReceived:count 0
scalar NClients.cli[3].udp packetReceived:sum(packetBytes) 0
scalar NClients.cli[3].udp packetSent:count 0
scalar NClients.cli[3].udp packetSent:sum(packetBytes) 0
scalar NClients.cli[3].udp passedUpPk:count 0
scalar NClients.cli[3].udp droppedPkWrongPort:count 0
scalar NClients.cli[3].udp droppedPkBadChecksum:count 0
scalar NClients.cli[3].app[0] packetReceived:count 13
scalar NClients.cli[3].app[0] packetReceived:sum(packetBytes) 80
scalar NClients.cli[3].app[0] packetSent:count 25
scalar NClients.cli[3].app[0] packetSent:sum(packetBytes) 25
scalar NClients.cli[3].app[0] numActiveSessions:max 1
scalar NClients.cli[3].app[0] numActiveSessions:timeavg 0.0030933179030366667
scalar NClients.cli[3].app[0] numSessions:last 1
scalar NClients.srv.lo[0].lo rcvdPkFromHl:count 0
scalar NClients.srv.lo[0].lo rcvdPkFromHl:sum(packetBytes) 0
scalar NClients.srv.lo[0].lo passedUpPk:count 0
scalar NClients.srv.lo[0].lo passedUpPk:sum(packetBytes) 0
scalar NClients.srv.lo[0] packetDropInterfaceDown:count 0
scalar NClients.srv.lo[0] packetDropInterfaceDown:sum(packetBytes) 0
scalar NClients.srv.lo[0] packetDropNoCarrier:count 0
scalar NClients.srv.lo[0] packetDropNoCarrier:sum(packetBytes) 0
scalar NClients.srv.ppp[0].queue queueLength:last 0
scalar NClients.srv.ppp[0].queue queueLength:max 3
scalar NClients.srv.ppp[0].queue queueLength:timeavg 1.168e-06
scalar NClients.srv.ppp[0].queue queueBitLength:last 0
scalar NClients.srv.ppp[0].queue queueBitLength:max 1760
scalar NClients.srv.ppp[0].queue queueBitLength:timeavg 0.0004099712
scalar NClients.srv.ppp[0].queue outgoingPackets:count 215
scalar NClients.srv.ppp[0].queue outgoingPacketLengths:sum 77464
scalar NClients.srv.ppp[0].queue incomingPackets:count 215
scalar NClients.srv.ppp[0].queue incomingPacketLengths:sum 77464
scalar NClients.srv.ppp[0].queue droppedPacketsQueueOverflow:count 0
scalar NClients.srv.ppp[0].queue droppedPacketLengthsQueueOverflow:sum 0
scalar NClients.srv.ppp[0].ppp transmissionState:timeavg 2.9834666666666665e-06
scalar NClients.srv.ppp[0].ppp rxPkOk:count 191
scalar NClients.srv.ppp[0].ppp rxPkOk:sum(packetBytes) 9209
scalar NClients.srv.ppp[0].ppp txPk:count 215
scalar NClients.srv.ppp[0].ppp txPk:sum(packetBytes) 11188
scalar NClients.srv.ppp[0].ppp rcvdPkFromHl:count 215
scalar NClients.srv.ppp[0].ppp rcvdPkFromHl:sum(packetBytes) 9683
scalar NClients.srv.ppp[0].ppp passedUpPk:count 191
scalar NClients.srv.ppp[0].ppp passedUpPk:sum(packetBytes) 7872
scalar NClients.srv.ppp[0].ppp packetDropIncorrectlyReceived:count 0
scalar NClients.srv.ppp[0].ppp packetDropIncorrectlyReceived:sum(packetBytes) 0
scalar NClients.srv.ppp[0].ppp packetDropInterfaceDown:count 0
scalar NClients.srv.ppp[0].ppp packetDropInterfaceDown:sum(packetBytes) 0
scalar NClients.srv.ppp[0] packetDropInterfaceDown:count 0
scalar NClients.srv.ppp[0] packetDropInterfaceDown:sum(packetBytes) 0
scalar NClients.srv.ppp[0] packetDropNoCarrier:count 0
scalar NClients.srv.ppp[0] packetDropNoCarrier:sum(packetBytes) 0
scalar NClients.srv.ipv4.ip packetDropAddressResolutionFailed:count 0
scalar NClients.srv.ipv4.ip packetDropAddressResolutionFailed:sum(packetBytes) 0
scalar NClients.srv.ipv4.ip packetDropHopLimitReached:count 0
scalar NClients.srv.ipv4.ip packetDropHopLimitReached:sum(packetBytes) 0
scalar NClients.srv.ipv4.ip packetDropForwardingDisabled:count 0
scalar NClients.srv.ipv4.ip packetDropForwardingDisabled:sum(packetBytes) 0
scalar NClients.srv.ipv4.ip packetDropLifetimeExpired:count 0
scalar NClients.srv.ipv4.ip packetDropLifetimeExpired:sum(packetBytes) 0
scalar NClients.srv.ipv4.ip packetDropNoInterfaceFound:count 0
scalar NClients.srv.ipv4.ip packetDropNoInterfaceFound:sum(packetBytes) 0
scalar NClients.srv.ipv4.ip packetDropNoRouteFound:count 0
scalar NClients.srv.ipv4.ip packetDropNoRouteFound:sum(packetBytes) 0
scalar NClients.srv.ipv4.ip packetDropUndefined:count 0
scalar NClients.srv.ipv4.ip packetDropUndefined:sum(packetBytes) 0
scalar NClients.srv.ipv4.arp arpResolutionFailed:count 0
scalar NClients.srv.ipv4.arp arpResolutionCompleted:count 0
scalar NClients.srv.ipv4.arp arpResolutionInitiated:count 0
scalar NClients.srv.ipv4.arp arpReplySent:count 0
scalar NClients.srv.ipv4.arp arpReplySent:sum(packetBytes) 0
scalar NClients.srv.ipv4.arp arpRequestSent:count 0
scalar NClients.srv.ipv4.arp arpRequestSent:sum(packetBytes) 0
scalar NClients.srv.udp packetReceived:count 0
scalar NClients.srv.udp packetReceived:sum(packetBytes) 0
scalar NClients.srv.udp packetSent:count 0
scalar NClients.srv.udp packetSent:sum(packetBytes) 0
scalar NClients.srv.udp passedUpPk:count 0
scalar NClients.srv.udp droppedPkWrongPort:count 0
scalar NClients.srv.udp droppedPkBadChecksum:count 0
scalar NClients.srv.app[0] packetReceived:count 76
scalar NClients.srv.app[0] packetReceived:sum(packetBytes) 212
scalar NClients.srv.app[0] packetSent:count 212
scalar NClients.srv.app[0] packetSent:sum(packetBytes) 1063
scalar NClients.r1.ppp[0].queue queueingTime:histogram:count 106
scalar NClients.r1.ppp[0].queue queueingTime:histogram:sumweights 106
scalar NClients.r1.ppp[0].queue queueingTime:histogram:mean 1.509433962264151e-08
scalar NClients.r1.ppp[0].queue queueingTime:histogram:stddev 1.5540573797716226e-07
scalar NClients.r1.ppp[0].queue queueingTime:histogram:min 0
scalar NClients.r1.ppp[0].queue queueingTime:histogram:max 1.6e-06
scalar NClients.r1.ppp[0].queue queueingTime:histogram:numbins 100
scalar NClients.r1.ppp[0].queue queueingTime:histogram:rangemin 0
scalar NClients.r1.ppp[0].queue queueingTime:histogram:rangemax 2.0000000000000003e-06
scalar NClients.r1.ppp[0].queue queueingTime:histogram:underflows 0
scalar NClients.r1.ppp[0].queue queueingTime:histogram:overflows 0
scalar NClients.r1.ppp[0].queue outgoingPacketLengths:histogram:count 106
scalar NClients.r1.ppp[0].queue outgoingPacketLengths:histogram:sumweights 106
scalar NClients.r1.ppp[0].queue outgoingPacketLengths:histogram:mean 353.66037735849056
scalar NClients.r1.ppp[0].queue outgoingPacketLengths:histogram:stddev 158.73679243400755
scalar NClients.r1.ppp[0].queue outgoingPacketLengths:histogram:min 320
scalar NClients.r1.ppp[0].queue outgoingPacketLengths:histogram:max 1760
scalar NClients.r1.ppp[0].queue outgoingPacketLengths:histogram:numbins 43
scalar NClients.r1.ppp[0].queue outgoingPacketLengths:histogram:rangemin 0
scalar NClients.r1.ppp[0].queue outgoingPacketLengths:histogram:rangemax 2150
scalar NClients.r1.ppp[0].queue outgoingPacketLengths:histogram:underflows 0
scalar NClients.r1.ppp[0].queue outgoingPacketLengths:histogram:overflows 0
scalar NClients.r1.ppp[0].queue flowQueueingTime:histogram:count 0
scalar NClients.r1.ppp[0].queue flowQueueingTime:histogram:sumweights 0
scalar NClients.r1.ppp[0].queue flowQueueingTime:histogram:mean nan
scalar NClients.r1.ppp[0].queue flowQueueingTime:histogram:stddev nan
scalar NClients.r1.ppp[0].queue flowQueueingTime:histogram:min nan
scalar NClients.r1.ppp[0].queue flowQueueingTime:histogram:max nan
scalar NClients.r1.ppp[0].queue flowQueueingTime:histogram:numbins 1
scalar NClients.r1.ppp[0].queue flowQueueingTime:histogram:rangemin 0
scalar NClients.r1.ppp[0].queue flowQueueingTime:histogram:rangemax 1
scalar NClients.r1.ppp[0].queue flowQueueingTime:histogram:underflows 0
scalar NClients.r1.ppp[0].queue flowQueueingTime:histogram:overflows 0
scalar NClients.r1.ppp[0].queue incomingPacketLengths:histogram:count 106
scalar NClients.r1.ppp[0].queue incomingPacketLengths:histogram:sumweights 106
scalar NClients.r1.ppp[0].queue incomingPacketLengths:histogram:mean 353.66037735849056
scalar NClients.r1.ppp[0].queue incomingPacketLengths:histogram:stddev 158.73679243400755
scalar NClients.r1.ppp[0].queue incomingPacketLengths:histogram:min 320
scalar NClients.r1.ppp[0].queue incomingPacketLengths:histogram:max 1760
scalar NClients.r1.ppp[0].queue incomingPacketLengths:histogram:numbins 43
scalar NClients.r1.ppp[0].queue incomingPacketLengths:histogram:rangemin 0
scalar NClients.r1.ppp[0].queue incomingPacketLengths:histogram:rangemax 2150
scalar NClients.r1.ppp[0].queue incomingPacketLengths:histogram:underflows 0
scalar NClients.r1.ppp[0].queue incomingPacketLengths:histogram:overflows 0
scalar NClients.r1.ppp[1].queue queueingTime:histogram:count 16
scalar NClients.r1.ppp[1].queue queueingTime:histogram:sumweights 16
scalar NClients.r1.ppp[1].queue queueingTime:histogram:mean 0
scalar NClients.r1.ppp[1].queue queueingTime:histogram:stddev 0
scalar NClients.r1.ppp[1].queue queueingTime:histogram:min 0
scalar NClients.r1.ppp[1].queue queueingTime:histogram:max 0
scalar NClients.r1.ppp[1].queue queueingTime:histogram:numbins 50
scalar NClients.r1.ppp[1].queue queueingTime:histogram:rangemin -0.5
scalar NClients.r1.ppp[1].queue queueingTime:histogram:rangemax 0.5
scalar NClients.r1.ppp[1].queue queueingTime:histogram:underflows 0
scalar NClients.r1.ppp[1].queue queueingTime:histogram:overflows 0
scalar NClients.r1.ppp[1].queue outgoingPacketLengths:histogram:count 16
scalar NClients.r1.ppp[1].queue outgoingPacketLengths:histogram:sumweights 16
scalar NClients.r1.ppp[1].queue outgoingPacketLengths:histogram:mean 344
scalar NClients.r1.ppp[1].queue outgoingPacketLengths:histogram:stddev 46.188021535170066
scalar NClients.r1.ppp[1].queue outgoingPacketLengths:histogram:min 320
scalar NClients.r1.ppp[1].queue outgoingPacketLengths:histogram:max 464
scalar NClients.r1.ppp[1].queue outgoingPacketLengths:histogram:numbins 44
scalar NClients.r1.ppp[1].queue outgoingPacketLengths:histogram:rangemin 280
scalar NClients.r1.ppp[1].queue outgoingPacketLengths:histogram:rangemax 500
scalar NClients.r1.ppp[1].queue outgoingPacketLengths:histogram:underflows 0
scalar NClients.r1.ppp[1].queue outgoingPacketLengths:histogram:overflows 0
scalar NClients.r1.ppp[1].queue flowQueueingTime:histogram:count 0
scalar NClients.r1.ppp[1].queue flowQueueingTime:histogram:sumweights 0
scalar NClients.r1.ppp[1].queue flowQueueingTime:histogram:mean nan
scalar NClients.r1.ppp[1].queue flowQueueingTime:histogram:stddev nan
scalar NClients.r1.ppp[1].queue flowQueueingTime:histogram:min nan
scalar NClients.r1.ppp[1].queue flowQueueingTime:histogram:max nan
scalar NClients.r1.ppp[1].queue flowQueueingTime:histogram:numbins 1
scalar NClients.r1.ppp[1].queue flowQueueingTime:histogram:rangemin 0
scalar NClients.r1.ppp[1].queue flowQueueingTime:histogram:rangemax 1
scalar NClients.r1.ppp[1].queue flowQueueingTime:histogram:underflows 0
scalar NClients.r1.ppp[1].queue flowQueueingTime:histogram:overflows 0
scalar NClients.r1.ppp[1].queue incomingPacketLengths:histogram:count 16
scalar NClients.r1.ppp[1].queue incomingPacketLengths:histogram:sumweights 16
scalar NClients.r1.ppp[1].queue incomingPacketLengths:histogram:mean 344
scalar NClients.r1.ppp[1].queue incomingPacketLengths:histogram:stddev 46.188021535170066
scalar NClients.r1.ppp[1].queue incomingPacketLengths:histogram:min 320
scalar NClients.r1.ppp[1].queue incomingPacketLengths:histogram:max 464
scalar NClients.r1.ppp[1].queue incomingPacketLengths:histogram:numbins 44
scalar NClients.r1.ppp[1].queue incomingPacketLengths:histogram:rangemin 280
scalar NClients.r1.ppp[1].queue incomingPacketLengths:histogram:rangemax 500
scalar NClients.r1.ppp[1].queue incomingPacketLengths:histogram:underflows 0
scalar NClients.r1.ppp[1].queue incomingPacketLengths:histogram:overflows 0
scalar NClients.r1.ppp[2].queue queueingTime:histogram:count 69
scalar NClients.r1.ppp[2].queue queueingTime:histogram:sumweights 69
scalar NClients.r1.ppp[2].queue queueingTime:histogram:mean 0
scalar NClients.r1.ppp[2].queue queueingTime:histogram:stddev 0
scalar NClients.r1.ppp[2].queue queueingTime:histogram:min 0
scalar NClients.r1.ppp[2].queue queueingTime:histogram:max 0
scalar NClients.r1.ppp[2].queue queueingTime:histogram:numbins 50
scalar NClients.r1.ppp[2].queue queueingTime:histogram:rangemin -0.5
scalar NClients.r1.ppp[2].queue queueingTime:histogram:rangemax 0.5
scalar NClients.r1.ppp[2].queue queueingTime:histogram:underflows 0
scalar NClients.r1.ppp[2].queue queueingTime:histogram:overflows 0
scalar NClients.r1.ppp[2].queue outgoingPacketLengths:histogram:count 69
scalar NClients.r1.ppp[2].queue outgoingPacketLengths:histogram:sumweights 69
scalar NClients.r1.ppp[2].queue outgoingPacketLengths:histogram:mean 378.5507246376812
scalar NClients.r1.ppp[2].queue outgoingPacketLengths:histogram:stddev 172.12576935894387
scalar NClients.r1.ppp[2].queue outgoingPacketLengths:histogram:min 320
scalar NClients.r1.ppp[2].queue outgoingPacketLengths:histogram:max 1432
scalar NClients.r1.ppp[2].queue outgoingPacketLengths:histogram:numbins 84
scalar NClients.r1.ppp[2].queue outgoingPacketLengths:histogram:rangemin 40
scalar NClients.r1.ppp[2].queue outgoingPacketLengths:histogram:rangemax 1720
scalar NClients.r1.ppp[2].queue outgoingPacketLengths:histogram:underflows 0
scalar NClients.r1.ppp[2].queue outgoingPacketLengths:histogram:overflows 0
scalar NClients.r1.ppp[2].queue flowQueueingTime:histogram:count 0
scalar NClients.r1.ppp[2].queue flowQueueingTime:histogram:sumweights 0
scalar NClients.r1.ppp[2].queue flowQueueingTime:histogram:mean nan
scalar NClients.r1.ppp[2].queue flowQueueingTime:histogram:stddev nan
scalar NClients.r1.ppp[2].queue flowQueueingTime:histogram:min nan
scalar NClients.r1.ppp[2].queue flowQueueingTime:histogram:max nan
scalar NClients.r1.ppp[2].queue flowQueueingTime:histogram:numbins 1
scalar NClients.r1.ppp[2].queue flowQueueingTime:histogram:rangemin 0
scalar NClients.r1.ppp[2].queue flowQueueingTime:histogram:rangemax 1
scalar NClients.r1.ppp[2].queue flowQueueingTime:histogram:underflows 0
scalar NClients.r1.ppp[2].queue flowQueueingTime:histogram:overflows 0
scalar NClients.r1.ppp[2].queue incomingPacketLengths:histogram:count 69
scalar NClients.r1.ppp[2].queue incomingPacketLengths:histogram:sumweights 69
scalar NClients.r1.ppp[2].queue incomingPacketLengths:histogram:mean 378.5507246376812
scalar NClients.r1.ppp[2].queue incomingPacketLengths:histogram:stddev 172.12576935894387
scalar NClients.r1.ppp[2].queue incomingPacketLengths:histogram:min 320
scalar NClients.r1.ppp[2].queue incomingPacketLengths:histogram:max 1432
scalar NClients.r1.ppp[2].queue incomingPacketLengths:histogram:numbins 84
scalar NClients.r1.ppp[2].queue incomingPacketLengths:histogram:rangemin 40
scalar NClients.r1.ppp[2].queue incomingPacketLengths:histogram:rangemax 1720
scalar NClients.r1.ppp[2].queue incomingPacketLengths:histogram:underflows 0
scalar NClients.r1.ppp[2].queue incomingPacketLengths:histogram:overflows 0
scalar NClients.r1.ppp[3].queue queueingTime:histogram:count 24
scalar NClients.r1.ppp[3].queue queueingTime:histogram:sumweights 24
scalar NClients.r1.ppp[3].queue queueingTime:histogram:mean 0
scalar NClients.r1.ppp[3].queue queueingTime:histogram:stddev 0
scalar NClients.r1.ppp[3].queue queueingTime:histogram:min 0
scalar NClients.r1.ppp[3].queue queueingTime:histogram:max 0
scalar NClients.r1.ppp[3].queue queueingTime:histogram:numbins 50
scalar NClients.r1.ppp[3].queue queueingTime:histogram:rangemin -0.5
scalar NClients.r1.ppp[3].queue queueingTime:histogram:rangemax 0.5
scalar NClients.r1.ppp[3].queue queueingTime:histogram:underflows 0
scalar NClients.r1.ppp[3].queue queueingTime:histogram:overflows 0
scalar NClients.r1.ppp[3].queue outgoingPacketLengths:histogram:count 24
scalar NClients.r1.ppp[3].queue outgoingPacketLengths:histogram:sumweights 24
scalar NClients.r1.ppp[3].queue outgoingPacketLengths:histogram:mean 348
scalar NClients.r1.ppp[3].queue outgoingPacketLengths:histogram:stddev 76.51541475841437
scalar NClients.r1.ppp[3].queue outgoingPacketLengths:histogram:min 320
scalar NClients.r1.ppp[3].queue outgoingPacketLengths:histogram:max 696
scalar NClients.r1.ppp[3].queue outgoingPacketLengths:histogram:numbins 57
scalar NClients.r1.ppp[3].queue outgoingPacketLengths:histogram:rangemin 220
scalar NClients.r1.ppp[3].queue outgoingPacketLengths:histogram:rangemax 790
scalar NClients.r1.ppp[3].queue outgoingPacketLengths:histogram:underflows 0
scalar NClients.r1.ppp[3].queue outgoingPacketLengths:histogram:overflows 0
scalar NClients.r1.ppp[3].queue flowQueueingTime:histogram:count 0
scalar NClients.r1.ppp[3].queue flowQueueingTime:histogram:sumweights 0
scalar NClients.r1.ppp[3].queue flowQueueingTime:histogram:mean nan
scalar NClients.r1.ppp[3].queue flowQueueingTime:histogram:stddev nan
scalar NClients.r1.ppp[3].queue flowQueueingTime:histogram:min nan
scalar NClients.r1.ppp[3].queue flowQueueingTime:histogram:max nan
scalar NClients.r1.ppp[3].queue flowQueueingTime:histogram:numbins 1
scalar NClients.r1.ppp[3].queue flowQueueingTime:histogram:rangemin 0
scalar NClients.r1.ppp[3].queue flowQueueingTime:histogram:rangemax 1
scalar NClients.r1.ppp[3].queue flowQueueingTime:histogram:underflows 0
scalar NClients.r1.ppp[3].queue flowQueueingTime:histogram:overflows 0
scalar NClients.r1.ppp[3].queue incomingPacketLengths:histogram:count 24
scalar NClients.r1.ppp[3].queue incomingPacketLengths:histogram:sumweights 24
scalar NClients.r1.ppp[3].queue incomingPacketLengths:histogram:mean 348
scalar NClients.r1.ppp[3].queue incomingPacketLengths:histogram:stddev 76.51541475841437
scalar NClients.r1.ppp[3].queue incomingPacketLengths:histogram:min 320
scalar NClients.r1.ppp[3].queue incomingPacketLengths:histogram:max 696
scalar NClients.r1.ppp[3].queue incomingPacketLengths:histogram:numbins 57
scalar NClients.r1.ppp[3].queue incomingPacketLengths:histogram:rangemin 220
scalar NClients.r1.ppp[3].queue incomingPacketLengths:histogram:rangemax 790
scalar NClients.r1.ppp[3].queue incomingPacketLengths:histogram:underflows 0
scalar NClients.r1.ppp[3].queue incomingPacketLengths:histogram:overflows 0
scalar NClients.r1.ppp[4].queue queueingTime:histogram:count 191
scalar NClients.r1.ppp[4].queue queueingTime:histogram:sumweights 191
scalar NClients.r1.ppp[4].queue queueingTime:histogram:mean 5.03455497382199e-06
scalar NClients.r1.ppp[4].queue queueingTime:histogram:stddev 1.7582534985360776e-05
scalar NClients.r1.ppp[4].queue queueingTime:histogram:min 0
scalar NClients.r1.ppp[4].queue queueingTime:histogram:max 0.0001144
scalar NClients.r1.ppp[4].queue queueingTime:histogram:numbins 72
scalar NClients.r1.ppp[4].queue queueingTime:histogram:rangemin 0
scalar NClients.r1.ppp[4].queue queueingTime:histogram:rangemax 0.00014400000000000003
scalar NClients.r1.ppp[4].queue queueingTime:histogram:underflows 0
scalar NClients.r1.ppp[4].queue queueingTime:histogram:overflows 0
scalar NClients.r1.ppp[4].queue outgoingPacketLengths:histogram:count 191
scalar NClients.r1.ppp[4].queue outgoingPacketLengths:histogram:sumweights 191
scalar NClients.r1.ppp[4].queue outgoingPacketLengths:histogram:mean 329.717277486911
scalar NClients.r1.ppp[4].queue outgoingPacketLengths:histogram:stddev 14.313176296923526
scalar NClients.r1.ppp[4].queue outgoingPacketLengths:histogram:min 320
scalar NClients.r1.ppp[4].queue outgoingPacketLengths:histogram:max 400
scalar NClients.r1.ppp[4].queue outgoingPacketLengths:histogram:numbins 60
scalar NClients.r1.ppp[4].queue outgoingPacketLengths:histogram:rangemin 300
scalar NClients.r1.ppp[4].queue outgoingPacketLengths:histogram:rangemax 420
scalar NClients.r1.ppp[4].queue outgoingPacketLengths:histogram:underflows 0
scalar NClients.r1.ppp[4].queue outgoingPacketLengths:histogram:overflows 0
scalar NClients.r1.ppp[4].queue flowQueueingTime:histogram:count 0
scalar NClients.r1.ppp[4].queue flowQueueingTime:histogram:sumweights 0
scalar NClients.r1.ppp[4].queue flowQueueingTime:histogram:mean nan
scalar NClients.r1.ppp[4].queue flowQueueingTime:histogram:stddev nan
scalar NClients.r1.ppp[4].queue flowQueueingTime:histogram:min nan
scalar NClients.r1.ppp[4].queue flowQueueingTime:histogram:max nan
scalar NClients.r1.ppp[4].queue flowQueueingTime:histogram:numbins 1
scalar NClients.r1.ppp[4].queue flowQueueingTime:histogram:rangemin 0
scalar NClients.r1.ppp[4].queue flowQueueingTime:histogram:rangemax 1
scalar NClients.r1.ppp[4].queue flowQueueingTime:histogram:underflows 0
scalar NClients.r1.ppp[4].queue flowQueueingTime:histogram:overflows 0
scalar NClients.r1.ppp[4].queue incomingPacketLengths:histogram:count 191
scalar NClients.r1.ppp[4].queue incomingPacketLengths:histogram:sumweights 191
scalar NClients.r1.ppp[4].queue incomingPacketLengths:histogram:mean 329.717277486911
scalar NClients.r1.ppp[4].queue incomingPacketLengths:histogram:stddev 14.313176296923526
scalar NClients.r1.ppp[4].queue incomingPacketLengths:histogram:min 320
scalar NClients.r1.ppp[4].queue incomingPacketLengths:histogram:max 400
scalar NClients.r1.ppp[4].queue incomingPacketLengths:histogram:numbins 60
scalar NClients.r1.ppp[4].queue incomingPacketLengths:histogram:rangemin 300
scalar NClients.r1.ppp[4].queue incomingPacketLengths:histogram:rangemax 420
scalar NClients.r1.ppp[4].queue incomingPacketLengths:histogram:underflows 0
scalar NClients.r1.ppp[4].queue incomingPacketLengths:histogram:overflows 0
scalar NClients.r2.ppp[0].queue queueingTime:histogram:count 215
scalar NClients.r2.ppp[0].queue queueingTime:histogram:sumweights 215
scalar NClients.r2.ppp[0].queue queueingTime:histogram:mean 2.407441860465116e-06
scalar NClients.r2.ppp[0].queue queueingTime:histogram:stddev 1.4837183035694076e-05
scalar NClients.r2.ppp[0].queue queueingTime:histogram:min 0
scalar NClients.r2.ppp[0].queue queueingTime:histogram:max 0.000144
scalar NClients.r2.ppp[0].queue queueingTime:histogram:numbins 90
scalar NClients.r2.ppp[0].queue queueingTime:histogram:rangemin 0
scalar NClients.r2.ppp[0].queue queueingTime:histogram:rangemax 0.00018000000000000004
scalar NClients.r2.ppp[0].queue queueingTime:histogram:underflows 0
scalar NClients.r2.ppp[0].queue queueingTime:histogram:overflows 0
scalar NClients.r2.ppp[0].queue outgoingPacketLengths:histogram:count 215
scalar NClients.r2.ppp[0].queue outgoingPacketLengths:histogram:sumweights 215
scalar NClients.r2.ppp[0].queue outgoingPacketLengths:histogram:mean 360.29767441860463
scalar NClients.r2.ppp[0].queue outgoingPacketLengths:histogram:stddev 150.73919032301887
scalar NClients.r2.ppp[0].queue outgoingPacketLengths:histogram:min 320
scalar NClients.r2.ppp[0].queue outgoingPacketLengths:histogram:max 1760
scalar NClients.r2.ppp[0].queue outgoingPacketLengths:histogram:numbins 43
scalar NClients.r2.ppp[0].queue outgoingPacketLengths:histogram:rangemin 0
scalar NClients.r2.ppp[0].queue outgoingPacketLengths:histogram:rangemax 2150
scalar NClients.r2.ppp[0].queue outgoingPacketLengths:histogram:underflows 0
scalar NClients.r2.ppp[0].queue outgoingPacketLengths:histogram:overflows 0
scalar NClients.r2.ppp[0].queue flowQueueingTime:histogram:count 0
scalar NClients.r2.ppp[0].queue flowQueueingTime:histogram:sumweights 0
scalar NClients.r2.ppp[0].queue flowQueueingTime:histogram:mean nan
scalar NClients.r2.ppp[0].queue flowQueueingTime:histogram:stddev nan
scalar NClients.r2.ppp[0].queue flowQueueingTime:histogram:min nan
scalar NClients.r2.ppp[0].queue flowQueueingTime:histogram:max nan
scalar NClients.r2.ppp[0].queue flowQueueingTime:histogram:numbins 1
scalar NClients.r2.ppp[0].queue flowQueueingTime:histogram:rangemin 0
scalar NClients.r2.ppp[0].queue flowQueueingTime:histogram:rangemax 1
scalar NClients.r2.ppp[0].queue flowQueueingTime:histogram:underflows 0
scalar NClients.r2.ppp[0].queue flowQueueingTime:histogram:overflows 0
scalar NClients.r2.ppp[0].queue incomingPacketLengths:histogram:count 215
scalar NClients.r2.ppp[0].queue incomingPacketLengths:histogram:sumweights 215
scalar NClients.r2.ppp[0].queue incomingPacketLengths:histogram:mean 360.29767441860463
scalar NClients.r2.ppp[0].queue incomingPacketLengths:histogram:stddev 150.73919032301887
scalar NClients.r2.ppp[0].queue incomingPacketLengths:histogram:min 320
scalar NClients.r2.ppp[0].queue incomingPacketLengths:histogram:max 1760
scalar NClients.r2.ppp[0].queue incomingPacketLengths:histogram:numbins 43
scalar NClients.r2.ppp[0].queue incomingPacketLengths:histogram:rangemin 0
scalar NClients.r2.ppp[0].queue incomingPacketLengths:histogram:rangemax 2150
scalar NClients.r2.ppp[0].queue incomingPacketLengths:histogram:underflows 0
scalar NClients.r2.ppp[0].queue incomingPacketLengths:histogram:overflows 0
scalar NClients.r2.ppp[1].queue queueingTime:histogram:count 191
scalar NClients.r2.ppp[1].queue queueingTime:histogram:sumweights 191
scalar NClients.r2.ppp[1].queue queueingTime:histogram:mean 1.675392670157068e-08
scalar NClients.r2.ppp[1].queue queueingTime:histogram:stddev 1.8276224754920446e-07
scalar NClients.r2.ppp[1].queue queueingTime:histogram:min 0
scalar NClients.r2.ppp[1].queue queueingTime:histogram:max 2.4e-06
scalar NClients.r2.ppp[1].queue queueingTime:histogram:numbins 50
scalar NClients.r2.ppp[1].queue queueingTime:histogram:rangemin -0.5
scalar NClients.r2.ppp[1].queue queueingTime:histogram:rangemax 0.5
scalar NClients.r2.ppp[1].queue queueingTime:histogram:underflows 0
scalar NClients.r2.ppp[1].queue queueingTime:histogram:overflows 0
scalar NClients.r2.ppp[1].queue outgoingPacketLengths:histogram:count 191
scalar NClients.r2.ppp[1].queue outgoingPacketLengths:histogram:sumweights 191
scalar NClients.r2.ppp[1].queue outgoingPacketLengths:histogram:mean 329.717277486911
scalar NClients.r2.ppp[1].queue outgoingPacketLengths:histogram:stddev 14.313176296923526
scalar NClients.r2.ppp[1].queue outgoingPacketLengths:histogram:min 320
scalar NClients.r2.ppp[1].queue outgoingPacketLengths:histogram:max 400
scalar NClients.r2.ppp[1].queue outgoingPacketLengths:histogram:numbins 60
scalar NClients.r2.ppp[1].queue outgoingPacketLengths:histogram:rangemin 300
scalar NClients.r2.ppp[1].queue outgoingPacketLengths:histogram:rangemax 420
scalar NClients.r2.ppp[1].queue outgoingPacketLengths:histogram:underflows 0
scalar NClients.r2.ppp[1].queue outgoingPacketLengths:histogram:overflows 0
scalar NClients.r2.ppp[1].queue flowQueueingTime:histogram:count 0
scalar NClients.r2.ppp[1].queue flowQueueingTime:histogram:sumweights 0
scalar NClients.r2.ppp[1].queue flowQueueingTime:histogram:mean nan
scalar NClients.r2.ppp[1].queue flowQueueingTime:histogram:stddev nan
scalar NClients.r2.ppp[1].queue flowQueueingTime:histogram:min nan
scalar NClients.r2.ppp[1].queue flowQueueingTime:histogram:max nan
scalar NClients.r2.ppp[1].queue flowQueueingTime:histogram:numbins 1
scalar NClients.r2.ppp[1].queue flowQueueingTime:histogram:rangemin 0
scalar NClients.r2.ppp[1].queue flowQueueingTime:histogram:rangemax 1
scalar NClients.r2.ppp[1].queue flowQueueingTime:histogram:underflows 0
scalar NClients.r2.ppp[1].queue flowQueueingTime:histogram:overflows 0
scalar NClients.r2.ppp[1].queue incomingPacketLengths:histogram:count 191
scalar NClients.r2.ppp[1].queue incomingPacketLengths:histogram:sumweights 191
scalar NClients.r2.ppp[1].queue incomingPacketLengths:histogram:mean 329.717277486911
scalar NClients.r2.ppp[1].queue incomingPacketLengths:histogram:stddev 14.313176296923526
scalar NClients.r2.ppp[1].queue incomingPacketLengths:histogram:min 320
scalar NClients.r2.ppp[1].queue incomingPacketLengths:histogram:max 400
scalar NClients.r2.ppp[1].queue incomingPacketLengths:histogram:numbins 60
scalar NClients.r2.ppp[1].queue incomingPacketLengths:histogram:rangemin 300
scalar NClients.r2.ppp[1].queue incomingPacketLengths:histogram:rangemax 420
scalar NClients.r2.ppp[1].queue incomingPacketLengths:histogram:underflows 0
scalar NClients.r2.ppp[1].queue incomingPacketLengths:histogram:overflows 0
scalar NClients.r3.ppp[0].queue queueingTime:histogram:count 215
scalar NClients.r3.ppp[0].queue queueingTime:histogram:sumweights 215
scalar NClients.r3.ppp[0].queue queueingTime:histogram:mean 2.4e-06
scalar NClients.r3.ppp[0].queue queueingTime:histogram:stddev 1.4837991148009598e-05
scalar NClients.r3.ppp[0].queue queueingTime:histogram:min 0
scalar NClients.r3.ppp[0].queue queueingTime:histogram:max 0.000144
scalar NClients.r3.ppp[0].queue queueingTime:histogram:numbins 90
scalar NClients.r3.ppp[0].queue queueingTime:histogram:rangemin 0
scalar NClients.r3.ppp[0].queue queueingTime:histogram:rangemax 0.00018000000000000004
scalar NClients.r3.ppp[0].queue queueingTime:histogram:underflows 0
scalar NClients.r3.ppp[0].queue queueingTime:histogram:overflows 0
scalar NClients.r3.ppp[0].queue outgoingPacketLengths:histogram:count 215
scalar NClients.r3.ppp[0].queue outgoingPacketLengths:histogram:sumweights 215
scalar NClients.r3.ppp[0].queue outgoingPacketLengths:histogram:mean 360.29767441860463
scalar NClients.r3.ppp[0].queue outgoingPacketLengths:histogram:stddev 150.73919032301887
scalar NClients.r3.ppp[0].queue outgoingPacketLengths:histogram:min 320
scalar NClients.r3.ppp[0].queue outgoingPacketLengths:histogram:max 1760
scalar NClients.r3.ppp[0].queue outgoingPacketLengths:histogram:numbins 43
scalar NClients.r3.ppp[0].queue outgoingPacketLengths:histogram:rangemin 0
scalar NClients.r3.ppp[0].queue outgoingPacketLengths:histogram:rangemax 2150
scalar NClients.r3.ppp[0].queue outgoingPacketLengths:histogram:underflows 0
scalar NClients.r3.ppp[0].queue outgoingPacketLengths:histogram:overflows 0
scalar NClients.r3.ppp[0].queue flowQueueingTime:histogram:count 0
scalar NClients.r3.ppp[0].queue flowQueueingTime:histogram:sumweights 0
scalar NClients.r3.ppp[0].queue flowQueueingTime:histogram:mean nan
scalar NClients.r3.ppp[0].queue flowQueueingTime:histogram:stddev nan
scalar NClients.r3.ppp[0].queue flowQueueingTime:histogram:min nan
scalar NClients.r3.ppp[0].queue flowQueueingTime:histogram:max nan
scalar NClients.r3.ppp[0].queue flowQueueingTime:histogram:numbins 1
scalar NClients.r3.ppp[0].queue flowQueueingTime:histogram:rangemin 0
scalar NClients.r3.ppp[0].queue flowQueueingTime:histogram:rangemax 1
scalar NClients.r3.ppp[0].queue flowQueueingTime:histogram:underflows 0
scalar NClients.r3.ppp[0].queue flowQueueingTime:histogram:overflows 0
scalar NClients.r3.ppp[0].queue incomingPacketLengths:histogram:count 215
scalar NClients.r3.ppp[0].queue incomingPacketLengths:histogram:sumweights 215
scalar NClients.r3.ppp[0].queue incomingPacketLengths:histogram:mean 360.29767441860463
scalar NClients.r3.ppp[0].queue incomingPacketLengths:histogram:stddev 150.73919032301887
scalar NClients.r3.ppp[0].queue incomingPacketLengths:histogram:min 320
scalar NClients.r3.ppp[0].queue incomingPacketLengths:histogram:max 1760
scalar NClients.r3.ppp[0].queue incomingPacketLengths:histogram:numbins 43
scalar NClients.r3.ppp[0].queue incomingPacketLengths:histogram:rangemin 0
scalar NClients.r3.ppp[0].queue incomingPacketLengths:histogram:rangemax 2150
scalar NClients.r3.ppp[0].queue incomingPacketLengths:histogram:underflows 0
scalar NClients.r3.ppp[0].queue incomingPacketLengths:histogram:overflows 0
scalar NClients.r3.ppp[1].queue queueingTime:histogram:count 191
scalar NClients.r3.ppp[1].queue queueingTime:histogram:sumweights 191
scalar NClients.r3.ppp[1].queue queueingTime:histogram:mean 1.675392670157068e-08
scalar NClients.r3.ppp[1].queue queueingTime:histogram:stddev 1.8276224754920446e-07
scalar NClients.r3.ppp[1].queue queueingTime:histogram:min 0
scalar NClients.r3.ppp[1].queue queueingTime:histogram:max 2.4e-06
scalar NClients.r3.ppp[1].queue queueingTime:histogram:numbins 50
scalar NClients.r3.ppp[1].queue queueingTime:histogram:rangemin -0.5
scalar NClients.r3.ppp[1].queue queueingTime:histogram:rangemax 0.5
scalar NClients.r3.ppp[1].queue queueingTime:histogram:underflows 0
scalar NClients.r3.ppp[1].queue queueingTime:histogram:overflows 0
scalar NClients.r3.ppp[1].queue outgoingPacketLengths:histogram:count 191
scalar NClients.r3.ppp[1].queue outgoingPacketLengths:histogram:sumweights 191
scalar NClients.r3.ppp[1].queue outgoingPacketLengths:histogram:mean 329.717277486911
scalar NClients.r3.ppp[1].queue outgoingPacketLengths:histogram:stddev 14.313176296923526
scalar NClients.r3.ppp[1].queue outgoingPacketLengths:histogram:min 320
scalar NClients.r3.ppp[1].queue outgoingPacketLengths:histogram:max 400
scalar NClients.r3.ppp[1].queue outgoingPacketLengths:histogram:numbins 60
scalar NClients.r3.ppp[1].queue outgoingPacketLengths:histogram:rangemin 300
scalar NClients.r3.ppp[1].queue outgoingPacketLengths:histogram:rangemax 420
scalar NClients.r3.ppp[1].queue outgoingPacketLengths:histogram:underflows 0
scalar NClients.r3.ppp[1].queue outgoingPacketLengths:histogram:overflows 0
scalar NClients.r3.ppp[1].queue flowQueueingTime:histogram:count 0
scalar NClients.r3.ppp[1].queue flowQueueingTime:histogram:sumweights 0
scalar NClients.r3.ppp[1].queue flowQueueingTime:histogram:mean nan
scalar NClients.r3.ppp[1].queue flowQueueingTime:histogram:stddev nan
scalar NClients.r3.ppp[1].queue flowQueueingTime:histogram:min nan
scalar NClients.r3.ppp[1].queue flowQueueingTime:histogram:max nan
scalar NClients.r3.ppp[1].queue flowQueueingTime:histogram:numbins 1
scalar NClients.r3.ppp[1].queue flowQueueingTime:histogram:rangemin 0
scalar NClients.r3.ppp[1].queue flowQueueingTime:histogram:rangemax 1
scalar NClients.r3.ppp[1].queue flowQueueingTime:histogram:underflows 0
scalar NClients.r3.ppp[1].queue flowQueueingTime:histogram:overflows 0
scalar NClients.r3.ppp[1].queue incomingPacketLengths:histogram:count 191
scalar NClients.r3.ppp[1].queue incomingPacketLengths:histogram:sumweights 191
scalar NClients.r3.ppp[1].queue incomingPacketLengths:histogram:mean 329.717277486911
scalar NClients.r3.ppp[1].queue incomingPacketLengths:histogram:stddev 14.313176296923526
scalar NClients.r3.ppp[1].queue incomingPacketLengths:histogram:min 320
scalar NClients.r3.ppp[1].queue incomingPacketLengths:histogram:max 400
scalar NClients.r3.ppp[1].queue incomingPacketLengths:histogram:numbins 60
scalar NClients.r3.ppp[1].queue incomingPacketLengths:histogram:rangemin 300
scalar NClients.r3.ppp[1].queue incomingPacketLengths:histogram:rangemax 420
scalar NClients.r3.ppp[1].queue incomingPacketLengths:histogram:underflows 0
scalar NClients.r3.ppp[1].queue incomingPacketLengths:histogram:overflows 0
scalar NClients.cli[0].ppp[0].queue queueingTime:histogram:count 92
scalar NClients.cli[0].ppp[0].queue queueingTime:histogram:sumweights 92
scalar NClients.cli[0].ppp[0].queue queueingTime:histogram:mean 4.08695652173913e-06
scalar NClients.cli[0].ppp[0].queue queueingTime:histogram:stddev 1.1767390379762934e-05
scalar NClients.cli[0].ppp[0].queue queueingTime:histogram:min 0
scalar NClients.cli[0].ppp[0].queue queueingTime:histogram:max 3.76e-05
scalar NClients.cli[0].ppp[0].queue queueingTime:histogram:numbins 47
scalar NClients.cli[0].ppp[0].queue queueingTime:histogram:rangemin 0
scalar NClients.cli[0].ppp[0].queue queueingTime:histogram:rangemax 4.700000000000001e-05
scalar NClients.cli[0].ppp[0].queue queueingTime:histogram:underflows 0
scalar NClients.cli[0].ppp[0].queue queueingTime:histogram:overflows 0
scalar NClients.cli[0].ppp[0].queue outgoingPacketLengths:histogram:count 92
scalar NClients.cli[0].ppp[0].queue outgoingPacketLengths:histogram:sumweights 92
scalar NClients.cli[0].ppp[0].queue outgoingPacketLengths:histogram:mean 330.3478260869565
scalar NClients.cli[0].ppp[0].queue outgoingPacketLengths:histogram:stddev 15.66856921215979
scalar NClients.cli[0].ppp[0].queue outgoingPacketLengths:histogram:min 320
scalar NClients.cli[0].ppp[0].queue outgoingPacketLengths:histogram:max 400
scalar NClients.cli[0].ppp[0].queue outgoingPacketLengths:histogram:numbins 60
scalar NClients.cli[0].ppp[0].queue outgoingPacketLengths:histogram:rangemin 300
scalar NClients.cli[0].ppp[0].queue outgoingPacketLengths:histogram:rangemax 420
scalar NClients.cli[0].ppp[0].queue outgoingPacketLengths:histogram:underflows 0
scalar NClients.cli[0].ppp[0].queue outgoingPacketLengths:histogram:overflows 0
scalar NClients.cli[0].ppp[0].queue flowQueueingTime:histogram:count 0
scalar NClients.cli[0].ppp[0].queue flowQueueingTime:histogram:sumweights 0
scalar NClients.cli[0].ppp[0].queue flowQueueingTime:histogram:mean nan
scalar NClients.cli[0].ppp[0].queue flowQueueingTime:histogram:stddev nan
scalar NClients.cli[0].ppp[0].queue flowQueueingTime:histogram:min nan
scalar NClients.cli[0].ppp[0].queue flowQueueingTime:histogram:max nan
scalar NClients.cli[0].ppp[0].queue flowQueueingTime:histogram:numbins 1
scalar NClients.cli[0].ppp[0].queue flowQueueingTime:histogram:rangemin 0
scalar NClients.cli[0].ppp[0].queue flowQueueingTime:histogram:rangemax 1
scalar NClients.cli[0].ppp[0].queue flowQueueingTime:histogram:underflows 0
scalar NClients.cli[0].ppp[0].queue flowQueueingTime:histogram:overflows 0
scalar NClients.cli[0].ppp[0].queue incomingPacketLengths:histogram:count 92
scalar NClients.cli[0].ppp[0].queue incomingPacketLengths:histogram:sumweights 92
scalar NClients.cli[0].ppp[0].queue incomingPacketLengths:histogram:mean 330.3478260869565
scalar NClients.cli[0].ppp[0].queue incomingPacketLengths:histogram:stddev 15.66856921215979
scalar NClients.cli[0].ppp[0].queue incomingPacketLengths:histogram:min 320
scalar NClients.cli[0].ppp[0].queue incomingPacketLengths:histogram:max 400
scalar NClients.cli[0].ppp[0].queue incomingPacketLengths:histogram:numbins 60
scalar NClients.cli[0].ppp[0].queue incomingPacketLengths:histogram:rangemin 300
scalar NClients.cli[0].ppp[0].queue incomingPacketLengths:histogram:rangemax 420
scalar NClients.cli[0].ppp[0].queue incomingPacketLengths:histogram:underflows 0
scalar NClients.cli[0].ppp[0].queue incomingPacketLengths:histogram:overflows 0
scalar NClients.cli[0].app[0] endToEndDelay:histogram:count 111
scalar NClients.cli[0].app[0] endToEndDelay:histogram:sumweights 111
scalar NClients.cli[0].app[0] endToEndDelay:histogram:mean 0.18029477837837837
scalar NClients.cli[0].app[0] endToEndDelay:histogram:stddev 0.11261009109533608
scalar NClients.cli[0].app[0] endToEndDelay:histogram:min 0.0001916
scalar NClients.cli[0].app[0] endToEndDelay:histogram:max 0.2504516
scalar NClients.cli[0].app[0] endToEndDelay:histogram:numbins 63
scalar NClients.cli[0].app[0] endToEndDelay:histogram:rangemin 0
scalar NClients.cli[0].app[0] endToEndDelay:histogram:rangemax 0.315
scalar NClients.cli[0].app[0] endToEndDelay:histogram:underflows 0
scalar NClients.cli[0].app[0] endToEndDelay:histogram:overflows 0
scalar NClients.cli[0].app[0] endToEndDelay:weightedHistogram:count 111
scalar NClients.cli[0].app[0] endToEndDelay:weightedHistogram:sumweights 3504
scalar NClients.cli[0].app[0] endToEndDelay:weightedHistogram:mean 0.12886783196347032
scalar NClients.cli[0].app[0] endToEndDelay:weightedHistogram:stddev 0.14145828519264053
scalar NClients.cli[0].app[0] endToEndDelay:weightedHistogram:min 0.0001916
scalar NClients.cli[0].app[0] endToEndDelay:weightedHistogram:max 0.2504516
scalar NClients.cli[0].app[0] endToEndDelay:weightedHistogram:numbins 63
scalar NClients.cli[0].app[0] endToEndDelay:weightedHistogram:rangemin 0
scalar NClients.cli[0].app[0] endToEndDelay:weightedHistogram:rangemax 0.315
scalar NClients.cli[0].app[0] endToEndDelay:weightedHistogram:underflows 0
scalar NClients.cli[0].app[0] endToEndDelay:weightedHistogram:overflows 0
scalar NClients.cli[1].ppp[0].queue queueingTime:histogram:count 14
[...]
scalar NClients.srv.tcp.conn-26 markingProb:vector:sumweights 0
scalar NClients.srv.tcp.conn-26 markingProb:vector:mean nan
scalar NClients.srv.tcp.conn-26 markingProb:vector:stddev nan
scalar NClients.srv.tcp.conn-26 markingProb:vector:min inf
scalar NClients.srv.tcp.conn-26 markingProb:vector:max -inf
scalar NClients.srv.tcp.conn-26 markingProb:vector:starttime nan
scalar NClients.srv.tcp.conn-26 markingProb:vector:endtime nan
scalar NClients.cli[0].tcp.conn-27 sndWnd:vector:count 47
scalar NClients.cli[0].tcp.conn-27 sndWnd:vector:sum 96418
scalar NClients.cli[0].tcp.conn-27 sndWnd:vector:sumweights 47
scalar NClients.cli[0].tcp.conn-27 sndWnd:vector:mean 2051.446808510638
scalar NClients.cli[0].tcp.conn-27 sndWnd:vector:stddev 70.78712991308704
scalar NClients.cli[0].tcp.conn-27 sndWnd:vector:min 1961
scalar NClients.cli[0].tcp.conn-27 sndWnd:vector:max 2144
scalar NClients.cli[0].tcp.conn-27 sndWnd:vector:starttime 2117.3788757024663
scalar NClients.cli[0].tcp.conn-27 sndWnd:vector:endtime 2152.2506370537076
scalar NClients.cli[0].tcp.conn-27 sndNxt:vector:count 47
scalar NClients.cli[0].tcp.conn-27 sndNxt:vector:sum 333967
scalar NClients.cli[0].tcp.conn-27 sndNxt:vector:sumweights 47
scalar NClients.cli[0].tcp.conn-27 sndNxt:vector:mean 7105.68085106383
scalar NClients.cli[0].tcp.conn-27 sndNxt:vector:stddev 16.838241133625104
scalar NClients.cli[0].tcp.conn-27 sndNxt:vector:min 7077
scalar NClients.cli[0].tcp.conn-27 sndNxt:vector:max 7135
scalar NClients.cli[0].tcp.conn-27 sndNxt:vector:starttime 2117.3788757024663
scalar NClients.cli[0].tcp.conn-27 sndNxt:vector:endtime 2152.2506370537076
scalar NClients.cli[0].tcp.conn-27 sndAck:vector:count 46
scalar NClients.cli[0].tcp.conn-27 sndAck:vector:sum 24349863310
scalar NClients.cli[0].tcp.conn-27 sndAck:vector:sumweights 46
scalar NClients.cli[0].tcp.conn-27 sndAck:vector:mean 529344854.5652174
scalar NClients.cli[0].tcp.conn-27 sndAck:vector:stddev 70.22945271545686
scalar NClients.cli[0].tcp.conn-27 sndAck:vector:min 529344760
scalar NClients.cli[0].tcp.conn-27 sndAck:vector:max 529344943
scalar NClients.cli[0].tcp.conn-27 sndAck:vector:starttime 2117.379202902466
scalar NClients.cli[0].tcp.conn-27 sndAck:vector:endtime 2152.2506370537076
scalar NClients.cli[0].tcp.conn-27 rcvWnd:vector:count 0
scalar NClients.cli[0].tcp.conn-27 rcvWnd:vector:sum 0
scalar NClients.cli[0].tcp.conn-27 rcvWnd:vector:sumweights 0
scalar NClients.cli[0].tcp.conn-27 rcvWnd:vector:mean nan
scalar NClients.cli[0].tcp.conn-27 rcvWnd:vector:stddev nan
scalar NClients.cli[0].tcp.conn-27 rcvWnd:vector:min inf
scalar NClients.cli[0].tcp.conn-27 rcvWnd:vector:max -inf
scalar NClients.cli[0].tcp.conn-27 rcvWnd:vector:starttime nan
scalar NClients.cli[0].tcp.conn-27 rcvWnd:vector:endtime nan
scalar NClients.cli[0].tcp.conn-27 rcvSeq:vector:count 0
scalar NClients.cli[0].tcp.conn-27 rcvSeq:vector:sum 0
scalar NClients.cli[0].tcp.conn-27 rcvSeq:vector:sumweights 0
scalar NClients.cli[0].tcp.conn-27 rcvSeq:vector:mean nan
scalar NClients.cli[0].tcp.conn-27 rcvSeq:vector:stddev nan
scalar NClients.cli[0].tcp.conn-27 rcvSeq:vector:min inf
scalar NClients.cli[0].tcp.conn-27 rcvSeq:vector:max -inf
scalar NClients.cli[0].tcp.conn-27 rcvSeq:vector:starttime nan
scalar NClients.cli[0].tcp.conn-27 rcvSeq:vector:endtime nan
scalar NClients.cli[0].tcp.conn-27 rcvAck:vector:count 0
scalar NClients.cli[0].tcp.conn-27 rcvAck:vector:sum 0
scalar NClients.cli[0].tcp.conn-27 rcvAck:vector:sumweights 0
scalar NClients.cli[0].tcp.conn-27 rcvAck:vector:mean nan
scalar NClients.cli[0].tcp.conn-27 rcvAck:vector:stddev nan
scalar NClients.cli[0].tcp.conn-27 rcvAck:vector:min inf
scalar NClients.cli[0].tcp.conn-27 rcvAck:vector:max -inf
scalar NClients.cli[0].tcp.conn-27 rcvAck:vector:starttime nan
scalar NClients.cli[0].tcp.conn-27 rcvAck:vector:endtime nan
scalar NClients.srv.tcp.conn-28 state:vector:count 5
scalar NClients.srv.tcp.conn-28 state:vector:sum 23
scalar NClients.srv.tcp.conn-28 state:vector:sumweights 5
scalar NClients.srv.tcp.conn-28 state:vector:mean 4.6
scalar NClients.srv.tcp.conn-28 state:vector:stddev 2.3021728866442683
scalar NClients.srv.tcp.conn-28 state:vector:min 1
scalar NClients.srv.tcp.conn-28 state:vector:max 7
scalar NClients.srv.tcp.conn-28 state:vector:starttime 2117.3790393024665
scalar NClients.srv.tcp.conn-28 state:vector:endtime 2152.2507878537076
scalar NClients.srv.tcp.conn-28 sndWnd:vector:count 34
scalar NClients.srv.tcp.conn-28 sndWnd:vector:sum 69744
scalar NClients.srv.tcp.conn-28 sndWnd:vector:sumweights 34
scalar NClients.srv.tcp.conn-28 sndWnd:vector:mean 2051.294117647059
scalar NClients.srv.tcp.conn-28 sndWnd:vector:stddev 71.25903639103804
scalar NClients.srv.tcp.conn-28 sndWnd:vector:min 1961
scalar NClients.srv.tcp.conn-28 sndWnd:vector:max 2144
scalar NClients.srv.tcp.conn-28 sndWnd:vector:starttime 2117.3790393024665
scalar NClients.srv.tcp.conn-28 sndWnd:vector:endtime 2152.2507878537076
scalar NClients.srv.tcp.conn-28 rcvWnd:vector:count 53
scalar NClients.srv.tcp.conn-28 rcvWnd:vector:sum 397712
scalar NClients.srv.tcp.conn-28 rcvWnd:vector:sumweights 53
scalar NClients.srv.tcp.conn-28 rcvWnd:vector:mean 7504
scalar NClients.srv.tcp.conn-28 rcvWnd:vector:stddev 0
scalar NClients.srv.tcp.conn-28 rcvWnd:vector:min 7504
scalar NClients.srv.tcp.conn-28 rcvWnd:vector:max 7504
scalar NClients.srv.tcp.conn-28 rcvWnd:vector:starttime 2117.3790393024665
scalar NClients.srv.tcp.conn-28 rcvWnd:vector:endtime 2152.2504486537073
scalar NClients.srv.tcp.conn-28 rcvAdv:vector:count 54
scalar NClients.srv.tcp.conn-28 rcvAdv:vector:sum 788977
scalar NClients.srv.tcp.conn-28 rcvAdv:vector:sumweights 54
scalar NClients.srv.tcp.conn-28 rcvAdv:vector:mean 14610.685185185184
scalar NClients.srv.tcp.conn-28 rcvAdv:vector:stddev 16.63914919180526
scalar NClients.srv.tcp.conn-28 rcvAdv:vector:min 14582
scalar NClients.srv.tcp.conn-28 rcvAdv:vector:max 14639
scalar NClients.srv.tcp.conn-28 rcvAdv:vector:starttime 2117.3790393024665
scalar NClients.srv.tcp.conn-28 rcvAdv:vector:endtime 2152.2504486537073
scalar NClients.srv.tcp.conn-28 sndNxt:vector:count 2
scalar NClients.srv.tcp.conn-28 sndNxt:vector:sum 1058689580
scalar NClients.srv.tcp.conn-28 sndNxt:vector:sumweights 2
scalar NClients.srv.tcp.conn-28 sndNxt:vector:mean 529344790
scalar NClients.srv.tcp.conn-28 sndNxt:vector:stddev 34.75629439396553
scalar NClients.srv.tcp.conn-28 sndNxt:vector:min 529344765
scalar NClients.srv.tcp.conn-28 sndNxt:vector:max 529344815
scalar NClients.srv.tcp.conn-28 sndNxt:vector:starttime 2119.7501508000005
scalar NClients.srv.tcp.conn-28 sndNxt:vector:endtime 2140.2501508000005
scalar NClients.srv.tcp.conn-28 sndAck:vector:count 53
scalar NClients.srv.tcp.conn-28 sndAck:vector:sum 376683
scalar NClients.srv.tcp.conn-28 sndAck:vector:sumweights 53
scalar NClients.srv.tcp.conn-28 sndAck:vector:mean 7107.226415094339
scalar NClients.srv.tcp.conn-28 sndAck:vector:stddev 16.311441842490936
scalar NClients.srv.tcp.conn-28 sndAck:vector:min 7078
scalar NClients.srv.tcp.conn-28 sndAck:vector:max 7135
scalar NClients.srv.tcp.conn-28 sndAck:vector:starttime 2117.3790393024665
scalar NClients.srv.tcp.conn-28 sndAck:vector:endtime 2152.2504486537073
scalar NClients.srv.tcp.conn-28 rcvSeq:vector:count 46
scalar NClients.srv.tcp.conn-28 rcvSeq:vector:sum 326890
scalar NClients.srv.tcp.conn-28 rcvSeq:vector:sumweights 46
scalar NClients.srv.tcp.conn-28 rcvSeq:vector:mean 7106.304347826087
scalar NClients.srv.tcp.conn-28 rcvSeq:vector:stddev 16.4666255940256
scalar NClients.srv.tcp.conn-28 rcvSeq:vector:min 7078
scalar NClients.srv.tcp.conn-28 rcvSeq:vector:max 7135
scalar NClients.srv.tcp.conn-28 rcvSeq:vector:starttime 2117.3793537024662
scalar NClients.srv.tcp.conn-28 rcvSeq:vector:endtime 2152.2507878537076
scalar NClients.srv.tcp.conn-28 rcvAck:vector:count 46
scalar NClients.srv.tcp.conn-28 rcvAck:vector:sum 24349863310
scalar NClients.srv.tcp.conn-28 rcvAck:vector:sumweights 46
scalar NClients.srv.tcp.conn-28 rcvAck:vector:mean 529344854.5652174
scalar NClients.srv.tcp.conn-28 rcvAck:vector:stddev 70.22945271545686
scalar NClients.srv.tcp.conn-28 rcvAck:vector:min 529344760
scalar NClients.srv.tcp.conn-28 rcvAck:vector:max 529344943
scalar NClients.srv.tcp.conn-28 rcvAck:vector:starttime 2117.3793537024662
scalar NClients.srv.tcp.conn-28 rcvAck:vector:endtime 2152.2507878537076
scalar NClients.srv.tcp.conn-28 unacked:vector:count 65
scalar NClients.srv.tcp.conn-28 unacked:vector:sum 183
scalar NClients.srv.tcp.conn-28 unacked:vector:sumweights 65
scalar NClients.srv.tcp.conn-28 unacked:vector:mean 2.8153846153846156
scalar NClients.srv.tcp.conn-28 unacked:vector:stddev 12.189765568516263
scalar NClients.srv.tcp.conn-28 unacked:vector:min 0
scalar NClients.srv.tcp.conn-28 unacked:vector:max 96
scalar NClients.srv.tcp.conn-28 unacked:vector:starttime 2117.3793537024662
scalar NClients.srv.tcp.conn-28 unacked:vector:endtime 2152.2507878537076
scalar NClients.srv.tcp.conn-28 dupAcks:vector:count 45
scalar NClients.srv.tcp.conn-28 dupAcks:vector:sum 0
scalar NClients.srv.tcp.conn-28 dupAcks:vector:sumweights 45
scalar NClients.srv.tcp.conn-28 dupAcks:vector:mean 0
scalar NClients.srv.tcp.conn-28 dupAcks:vector:stddev 0
scalar NClients.srv.tcp.conn-28 dupAcks:vector:min 0
scalar NClients.srv.tcp.conn-28 dupAcks:vector:max 0
scalar NClients.srv.tcp.conn-28 dupAcks:vector:starttime 2119.0001604000004
scalar NClients.srv.tcp.conn-28 dupAcks:vector:endtime 2152.2507878537076
scalar NClients.srv.tcp.conn-28 pipe:vector:count 0
scalar NClients.srv.tcp.conn-28 pipe:vector:sum 0
scalar NClients.srv.tcp.conn-28 pipe:vector:sumweights 0
scalar NClients.srv.tcp.conn-28 pipe:vector:mean nan
scalar NClients.srv.tcp.conn-28 pipe:vector:stddev nan
scalar NClients.srv.tcp.conn-28 pipe:vector:min inf
scalar NClients.srv.tcp.conn-28 pipe:vector:max -inf
scalar NClients.srv.tcp.conn-28 pipe:vector:starttime nan
scalar NClients.srv.tcp.conn-28 pipe:vector:endtime nan
scalar NClients.srv.tcp.conn-28 sndSacks:vector:count 0
scalar NClients.srv.tcp.conn-28 sndSacks:vector:sum 0
scalar NClients.srv.tcp.conn-28 sndSacks:vector:sumweights 0
scalar NClients.srv.tcp.conn-28 sndSacks:vector:mean nan
scalar NClients.srv.tcp.conn-28 sndSacks:vector:stddev nan
scalar NClients.srv.tcp.conn-28 sndSacks:vector:min inf
scalar NClients.srv.tcp.conn-28 sndSacks:vector:max -inf
scalar NClients.srv.tcp.conn-28 sndSacks:vector:starttime nan
scalar NClients.srv.tcp.conn-28 sndSacks:vector:endtime nan
scalar NClients.srv.tcp.conn-28 rcvSacks:vector:count 0
scalar NClients.srv.tcp.conn-28 rcvSacks:vector:sum 0
scalar NClients.srv.tcp.conn-28 rcvSacks:vector:sumweights 0
scalar NClients.srv.tcp.conn-28 rcvSacks:vector:mean nan
scalar NClients.srv.tcp.conn-28 rcvSacks:vector:stddev nan
scalar NClients.srv.tcp.conn-28 rcvSacks:vector:min inf
scalar NClients.srv.tcp.conn-28 rcvSacks:vector:max -inf
scalar NClients.srv.tcp.conn-28 rcvSacks:vector:starttime nan
scalar NClients.srv.tcp.conn-28 rcvSacks:vector:endtime nan
scalar NClients.srv.tcp.conn-28 rcvOooSeg:vector:count 0
scalar NClients.srv.tcp.conn-28 rcvOooSeg:vector:sum 0
scalar NClients.srv.tcp.conn-28 rcvOooSeg:vector:sumweights 0
scalar NClients.srv.tcp.conn-28 rcvOooSeg:vector:mean nan
scalar NClients.srv.tcp.conn-28 rcvOooSeg:vector:stddev nan
scalar NClients.srv.tcp.conn-28 rcvOooSeg:vector:min inf
scalar NClients.srv.tcp.conn-28 rcvOooSeg:vector:max -inf
scalar NClients.srv.tcp.conn-28 rcvOooSeg:vector:starttime nan
scalar NClients.srv.tcp.conn-28 rcvOooSeg:vector:endtime nan
scalar NClients.srv.tcp.conn-28 rcvNASeg:vector:count 0
scalar NClients.srv.tcp.conn-28 rcvNASeg:vector:sum 0
scalar NClients.srv.tcp.conn-28 rcvNASeg:vector:sumweights 0
scalar NClients.srv.tcp.conn-28 rcvNASeg:vector:mean nan
scalar NClients.srv.tcp.conn-28 rcvNASeg:vector:stddev nan
scalar NClients.srv.tcp.conn-28 rcvNASeg:vector:min inf
scalar NClients.srv.tcp.conn-28 rcvNASeg:vector:max -inf
scalar NClients.srv.tcp.conn-28 rcvNASeg:vector:starttime nan
scalar NClients.srv.tcp.conn-28 rcvNASeg:vector:endtime nan
scalar NClients.srv.tcp.conn-28 sackedBytes:vector:count 0
scalar NClients.srv.tcp.conn-28 sackedBytes:vector:sum 0
scalar NClients.srv.tcp.conn-28 sackedBytes:vector:sumweights 0
scalar NClients.srv.tcp.conn-28 sackedBytes:vector:mean nan
scalar NClients.srv.tcp.conn-28 sackedBytes:vector:stddev nan
scalar NClients.srv.tcp.conn-28 sackedBytes:vector:min inf
scalar NClients.srv.tcp.conn-28 sackedBytes:vector:max -inf
scalar NClients.srv.tcp.conn-28 sackedBytes:vector:starttime nan
scalar NClients.srv.tcp.conn-28 sackedBytes:vector:endtime nan
scalar NClients.srv.tcp.conn-28 tcpRcvQueueBytes:vector:count 72
scalar NClients.srv.tcp.conn-28 tcpRcvQueueBytes:vector:sum 0
scalar NClients.srv.tcp.conn-28 tcpRcvQueueBytes:vector:sumweights 72
scalar NClients.srv.tcp.conn-28 tcpRcvQueueBytes:vector:mean 0
scalar NClients.srv.tcp.conn-28 tcpRcvQueueBytes:vector:stddev 0
scalar NClients.srv.tcp.conn-28 tcpRcvQueueBytes:vector:min 0
scalar NClients.srv.tcp.conn-28 tcpRcvQueueBytes:vector:max 0
scalar NClients.srv.tcp.conn-28 tcpRcvQueueBytes:vector:starttime 2117.3790393024665
scalar NClients.srv.tcp.conn-28 tcpRcvQueueBytes:vector:endtime 2152.2504486537073
scalar NClients.srv.tcp.conn-28 tcpRcvQueueDrops:vector:count 0
scalar NClients.srv.tcp.conn-28 tcpRcvQueueDrops:vector:sum 0
scalar NClients.srv.tcp.conn-28 tcpRcvQueueDrops:vector:sumweights 0
scalar NClients.srv.tcp.conn-28 tcpRcvQueueDrops:vector:mean nan
scalar NClients.srv.tcp.conn-28 tcpRcvQueueDrops:vector:stddev nan
scalar NClients.srv.tcp.conn-28 tcpRcvQueueDrops:vector:min inf
scalar NClients.srv.tcp.conn-28 tcpRcvQueueDrops:vector:max -inf
scalar NClients.srv.tcp.conn-28 tcpRcvQueueDrops:vector:starttime nan
scalar NClients.srv.tcp.conn-28 tcpRcvQueueDrops:vector:endtime nan
scalar NClients.srv.tcp.conn-28 tcpRcvPayloadBytes:vector:count 46
scalar NClients.srv.tcp.conn-28 tcpRcvPayloadBytes:vector:sum 56
scalar NClients.srv.tcp.conn-28 tcpRcvPayloadBytes:vector:sumweights 46
scalar NClients.srv.tcp.conn-28 tcpRcvPayloadBytes:vector:mean 1.2173913043478262
scalar NClients.srv.tcp.conn-28 tcpRcvPayloadBytes:vector:stddev 1.8488800631524764
scalar NClients.srv.tcp.conn-28 tcpRcvPayloadBytes:vector:min 0
scalar NClients.srv.tcp.conn-28 tcpRcvPayloadBytes:vector:max 7
scalar NClients.srv.tcp.conn-28 tcpRcvPayloadBytes:vector:starttime 2117.3793537024662
scalar NClients.srv.tcp.conn-28 tcpRcvPayloadBytes:vector:endtime 2152.2507878537076
scalar NClients.srv.tcp.conn-28 cwnd:vector:count 32
scalar NClients.srv.tcp.conn-28 cwnd:vector:sum 101304
scalar NClients.srv.tcp.conn-28 cwnd:vector:sumweights 32
scalar NClients.srv.tcp.conn-28 cwnd:vector:mean 3165.75
scalar NClients.srv.tcp.conn-28 cwnd:vector:stddev 1771.7545704934746
scalar NClients.srv.tcp.conn-28 cwnd:vector:min 1072
scalar NClients.srv.tcp.conn-28 cwnd:vector:max 6968
scalar NClients.srv.tcp.conn-28 cwnd:vector:starttime 2119.2501508000005
scalar NClients.srv.tcp.conn-28 cwnd:vector:endtime 2152.2507878537076
scalar NClients.srv.tcp.conn-28 ssthresh:vector:count 32
scalar NClients.srv.tcp.conn-28 ssthresh:vector:sum 137438953440
scalar NClients.srv.tcp.conn-28 ssthresh:vector:sumweights 32
scalar NClients.srv.tcp.conn-28 ssthresh:vector:mean 4294967295
scalar NClients.srv.tcp.conn-28 ssthresh:vector:stddev 0
scalar NClients.srv.tcp.conn-28 ssthresh:vector:min 4294967295
scalar NClients.srv.tcp.conn-28 ssthresh:vector:max 4294967295
scalar NClients.srv.tcp.conn-28 ssthresh:vector:starttime 2119.2501508000005
scalar NClients.srv.tcp.conn-28 ssthresh:vector:endtime 2152.2507878537076
scalar NClients.srv.tcp.conn-28 rtt:vector:count 31
scalar NClients.srv.tcp.conn-28 rtt:vector:sum 5.9998696
scalar NClients.srv.tcp.conn-28 rtt:vector:sumweights 31
scalar NClients.srv.tcp.conn-28 rtt:vector:mean 0.1935441806451613
scalar NClients.srv.tcp.conn-28 rtt:vector:stddev 0.10607983822264376
scalar NClients.srv.tcp.conn-28 rtt:vector:min 0.0003112
scalar NClients.srv.tcp.conn-28 rtt:vector:max 0.25
scalar NClients.srv.tcp.conn-28 rtt:vector:starttime 2119.2501508000005
scalar NClients.srv.tcp.conn-28 rtt:vector:endtime 2150.5001508000005
scalar NClients.srv.tcp.conn-28 srtt:vector:count 31
scalar NClients.srv.tcp.conn-28 srtt:vector:sum 4.66441095653
scalar NClients.srv.tcp.conn-28 srtt:vector:sumweights 31
scalar NClients.srv.tcp.conn-28 srtt:vector:mean 0.15046486956548388
scalar NClients.srv.tcp.conn-28 srtt:vector:stddev 0.04728328592699208
scalar NClients.srv.tcp.conn-28 srtt:vector:min 0.027382
scalar NClients.srv.tcp.conn-28 srtt:vector:max 0.201457389155
scalar NClients.srv.tcp.conn-28 srtt:vector:starttime 2119.2501508000005
scalar NClients.srv.tcp.conn-28 srtt:vector:endtime 2150.5001508000005
scalar NClients.srv.tcp.conn-28 rttvar:vector:count 31
scalar NClients.srv.tcp.conn-28 rttvar:vector:sum 8.168522960487
scalar NClients.srv.tcp.conn-28 rttvar:vector:sumweights 31
scalar NClients.srv.tcp.conn-28 rttvar:vector:mean 0.263500740660871
scalar NClients.srv.tcp.conn-28 rttvar:vector:stddev 0.16214823443096846
scalar NClients.srv.tcp.conn-28 rttvar:vector:min 0.113929511451
scalar NClients.srv.tcp.conn-28 rttvar:vector:max 0.6874988
scalar NClients.srv.tcp.conn-28 rttvar:vector:starttime 2119.2501508000005
scalar NClients.srv.tcp.conn-28 rttvar:vector:endtime 2150.5001508000005
scalar NClients.srv.tcp.conn-28 rto:vector:count 31
scalar NClients.srv.tcp.conn-28 rto:vector:sum 41.240304648062
scalar NClients.srv.tcp.conn-28 rto:vector:sumweights 31
scalar NClients.srv.tcp.conn-28 rto:vector:mean 1.330332408002
scalar NClients.srv.tcp.conn-28 rto:vector:stddev 0.5088618306921929
scalar NClients.srv.tcp.conn-28 rto:vector:min 1
scalar NClients.srv.tcp.conn-28 rto:vector:max 2.781244
scalar NClients.srv.tcp.conn-28 rto:vector:starttime 2119.2501508000005
scalar NClients.srv.tcp.conn-28 rto:vector:endtime 2150.5001508000005
scalar NClients.srv.tcp.conn-28 numRtos:vector:count 0
scalar NClients.srv.tcp.conn-28 numRtos:vector:sum 0
scalar NClients.srv.tcp.conn-28 numRtos:vector:sumweights 0
scalar NClients.srv.tcp.conn-28 numRtos:vector:mean nan
scalar NClients.srv.tcp.conn-28 numRtos:vector:stddev nan
scalar NClients.srv.tcp.conn-28 numRtos:vector:min inf
scalar NClients.srv.tcp.conn-28 numRtos:vector:max -inf
scalar NClients.srv.tcp.conn-28 numRtos:vector:starttime nan
scalar NClients.srv.tcp.conn-28 numRtos:vector:endtime nan
scalar NClients.srv.tcp.conn-28 load:vector:count 0
scalar NClients.srv.tcp.conn-28 load:vector:sum 0
scalar NClients.srv.tcp.conn-28 load:vector:sumweights 0
scalar NClients.srv.tcp.conn-28 load:vector:mean nan
scalar NClients.srv.tcp.conn-28 load:vector:stddev nan
scalar NClients.srv.tcp.conn-28 load:vector:min inf
scalar NClients.srv.tcp.conn-28 load:vector:max -inf
scalar NClients.srv.tcp.conn-28 load:vector:starttime nan
scalar NClients.srv.tcp.conn-28 load:vector:endtime nan
scalar NClients.srv.tcp.conn-28 calcLoad:vector:count 0
scalar NClients.srv.tcp.conn-28 calcLoad:vector:sum 0
scalar NClients.srv.tcp.conn-28 calcLoad:vector:sumweights 0
scalar NClients.srv.tcp.conn-28 calcLoad:vector:mean nan
scalar NClients.srv.tcp.conn-28 calcLoad:vector:stddev nan
scalar NClients.srv.tcp.conn-28 calcLoad:vector:min inf
scalar NClients.srv.tcp.conn-28 calcLoad:vector:max -inf
scalar NClients.srv.tcp.conn-28 calcLoad:vector:starttime nan
scalar NClients.srv.tcp.conn-28 calcLoad:vector:endtime nan
scalar NClients.srv.tcp.conn-28 markingProb:vector:count 0
scalar NClients.srv.tcp.conn-28 markingProb:vector:sum 0
scalar NClients.srv.tcp.conn-28 markingProb:vector:sumweights 0
scalar NClients.srv.tcp.conn-28 markingProb:vector:mean nan
scalar NClients.srv.tcp.conn-28 markingProb:vector:stddev nan
scalar NClients.srv.tcp.conn-28 markingProb:vector:min inf
scalar NClients.srv.tcp.conn-28 markingProb:vector:max -inf
scalar NClients.srv.tcp.conn-28 markingProb:vector:starttime nan
scalar NClients.srv.tcp.conn-28 markingProb:vector:endtime nan

