version 3
run MixedTraffic-0-20250108-11:37:25-14361
attr configname MixedTraffic
attr datetime 20250108-11:37:25
attr datetimef 20250108-113725
attr experiment MixedTraffic
attr inifile omnetpp.ini
attr iterationvars ""
attr iterationvarsd ""
attr iterationvarsf ""
attr measurement ""
attr network BlockAckShowcase
attr processid 14361
attr repetition 0
attr replication #0
attr resultdir results
attr runnumber 0
attr seedset 0
config **.param-recording false
config image-path /home/levy/workspace/inet/images
config output-scalar-file results/omnetpp.ini-MixedTraffic-#0.sca
config output-vector-file results/omnetpp.ini-MixedTraffic-#0.vec
config sim-time-limit 1s
config description "Mixed traffic of packets shorter and longer than blockAckReqThreshold"
config *.host1.numApps 2
config *.host1.app[1].typename UdpBasicApp
config *.host1.app[1].destAddresses "\"host2\""
config *.host1.app[1].destPort 2000
config *.host1.app[1].messageLength 1700B
config *.host1.app[1].sendInterval 0.1ms
config *.host1.app[1].packetName "\"Large\""
config *.host2.numApps 2
config *.host2.app[1].typename UdpSink
config *.host2.app[1].localPort 2000
config network BlockAckShowcase
config sim-time-limit 1s
config *.host1.numApps 1
config *.host1.app[0].typename UdpBasicApp
config *.host1.app[0].destAddresses "\"host2\""
config *.host1.app[0].destPort 1000
config *.host1.app[0].messageLength 700B
config *.host1.app[0].sendInterval 0.1ms
config *.host1.app[0].packetName "\"Data\""
config *.host2.numApps 1
config *.host2.app[0].typename UdpSink
config *.host2.app[0].localPort 1000
config *.host*.ipv4.arp.typename GlobalArp
config *.host*.wlan[*].mac.qosStation true
config *.host*.wlan[*].classifier.typename QosClassifier
config *.host*.wlan[*].mac.hcf.isBlockAckSupported true
config *.host*.wlan[*].radio.receiver.energyDetection -105dBm
config *.host*.wlan[*].radio.receiver.sensitivity -105dBm
config *.host*.wlan[*].radio.receiver.snirThreshold 0dB
config *.host*.wlan[*].radio.transmitter.power 0.12mW
config **.hcf.originatorMacDataService.fragmentationPolicy.fragmentationThreshold 10000B
config **.hcf.originatorMacDataService.msduAggregationPolicy.aggregationLengthThreshold 10000
config *.visualizer.physicalLinkVisualizer.displayLinks true
config *.visualizer.dataLinkVisualizer.displayLinks true
config *.visualizer.infoVisualizer.modules "\"*.host2.app[0]\""
config *.visualizer.infoVisualizer.format "\"%t\""
config *.visualizer.packetDropVisualizer.displayPacketDrops true
config *.visualizer.packetDropVisualizer.labelFormat "\"%r\""

scalar BlockAckShowcase.radioMedium.propagation "Arrival computation count" 1110
scalar BlockAckShowcase.radioMedium "transmission count" 1110
scalar BlockAckShowcase.radioMedium "signal send count" 1110
scalar BlockAckShowcase.radioMedium "reception computation count" 1110
scalar BlockAckShowcase.radioMedium "interference computation count" 4444
scalar BlockAckShowcase.radioMedium "reception decision computation count" 1110
scalar BlockAckShowcase.radioMedium "listening decision computation count" 2224
scalar BlockAckShowcase.radioMedium "reception cache hit" 85.714285714286
scalar BlockAckShowcase.radioMedium "interference cache hit" 66.666666666667
scalar BlockAckShowcase.radioMedium "noise cache hit" 0
scalar BlockAckShowcase.radioMedium "snir cache hit" 50
scalar BlockAckShowcase.radioMedium "reception decision cache hit" 50
scalar BlockAckShowcase.radioMedium "reception result cache hit" 0
scalar BlockAckShowcase.host1.lo[0].lo rcvdPkFromHl:count 0
scalar BlockAckShowcase.host1.lo[0].lo rcvdPkFromHl:sum(packetBytes) 0
scalar BlockAckShowcase.host1.lo[0].lo passedUpPk:count 0
scalar BlockAckShowcase.host1.lo[0].lo passedUpPk:sum(packetBytes) 0
scalar BlockAckShowcase.host1.lo[0] packetDropInterfaceDown:count 0
scalar BlockAckShowcase.host1.lo[0] packetDropInterfaceDown:sum(packetBytes) 0
scalar BlockAckShowcase.host1.lo[0] packetDropNoCarrier:count 0
scalar BlockAckShowcase.host1.lo[0] packetDropNoCarrier:sum(packetBytes) 0
scalar BlockAckShowcase.host1.wlan[0].mac.dcf.channelAccess.pendingQueue queueLength:last 0
scalar BlockAckShowcase.host1.wlan[0].mac.dcf.channelAccess.pendingQueue queueLength:max 0
scalar BlockAckShowcase.host1.wlan[0].mac.dcf.channelAccess.pendingQueue queueLength:timeavg 0
scalar BlockAckShowcase.host1.wlan[0].mac.dcf.channelAccess.pendingQueue queueBitLength:last 0
scalar BlockAckShowcase.host1.wlan[0].mac.dcf.channelAccess.pendingQueue queueBitLength:max 0
scalar BlockAckShowcase.host1.wlan[0].mac.dcf.channelAccess.pendingQueue queueBitLength:timeavg 0
scalar BlockAckShowcase.host1.wlan[0].mac.dcf.channelAccess.pendingQueue outgoingPackets:count 0
scalar BlockAckShowcase.host1.wlan[0].mac.dcf.channelAccess.pendingQueue outgoingPacketLengths:sum 0
scalar BlockAckShowcase.host1.wlan[0].mac.dcf.channelAccess.pendingQueue incomingPackets:count 0
scalar BlockAckShowcase.host1.wlan[0].mac.dcf.channelAccess.pendingQueue incomingPacketLengths:sum 0
scalar BlockAckShowcase.host1.wlan[0].mac.dcf.channelAccess.pendingQueue droppedPacketsQueueOverflow:count 0
scalar BlockAckShowcase.host1.wlan[0].mac.dcf.channelAccess.pendingQueue droppedPacketLengthsQueueOverflow:sum 0
scalar BlockAckShowcase.host1.wlan[0].mac.dcf.channelAccess.inProgressFrames queueLength:max 0
scalar BlockAckShowcase.host1.wlan[0].mac.dcf.channelAccess.inProgressFrames queueLength:timeavg 0
scalar BlockAckShowcase.host1.wlan[0].mac.dcf.channelAccess.contention channelAccessGranted:count 0
scalar BlockAckShowcase.host1.wlan[0].mac.dcf.channelAccess.contention stateChanged:count 3706
scalar BlockAckShowcase.host1.wlan[0].mac.dcf.channelAccess channelOwnershipChanged:count 0
scalar BlockAckShowcase.host1.wlan[0].mac.dcf.originatorMacDataService packetAggregated:count 0
scalar BlockAckShowcase.host1.wlan[0].mac.dcf.originatorMacDataService packetFragmented:count 0
scalar BlockAckShowcase.host1.wlan[0].mac.dcf.recipientMacDataService packetDeaggregated:count 0
scalar BlockAckShowcase.host1.wlan[0].mac.dcf.recipientMacDataService packetDefragmented:count 0
scalar BlockAckShowcase.host1.wlan[0].mac.dcf.recipientMacDataService packetDropDuplicateDetected:count 0
scalar BlockAckShowcase.host1.wlan[0].mac.dcf.recipientMacDataService packetDropDuplicateDetected:sum(packetBytes) 0
scalar BlockAckShowcase.host1.wlan[0].mac.dcf.recoveryProcedure retryLimitReached:count 0
scalar BlockAckShowcase.host1.wlan[0].mac.dcf frameSequenceFinished:count 0
scalar BlockAckShowcase.host1.wlan[0].mac.dcf packetReceivedFromPeer:count 0
scalar BlockAckShowcase.host1.wlan[0].mac.dcf packetReceivedFromPeer:sum(packetBytes) 0
scalar BlockAckShowcase.host1.wlan[0].mac.dcf packetReceivedFromPeerUnicast:count 0
scalar BlockAckShowcase.host1.wlan[0].mac.dcf packetReceivedFromPeerUnicast:sum(packetBytes) 0
scalar BlockAckShowcase.host1.wlan[0].mac.dcf packetReceivedFromPeerMulticast:count 0
scalar BlockAckShowcase.host1.wlan[0].mac.dcf packetReceivedFromPeerMulticast:sum(packetBytes) 0
scalar BlockAckShowcase.host1.wlan[0].mac.dcf packetReceivedFromPeerBroadcast:count 0
scalar BlockAckShowcase.host1.wlan[0].mac.dcf packetReceivedFromPeerBroadcast:sum(packetBytes) 0
scalar BlockAckShowcase.host1.wlan[0].mac.dcf packetReceivedFromPeerWithRetry:count 0
scalar BlockAckShowcase.host1.wlan[0].mac.dcf packetReceivedFromPeerWithRetry:sum(packetBytes) 0
scalar BlockAckShowcase.host1.wlan[0].mac.dcf packetReceivedFromPeerWithoutRetry:count 0
scalar BlockAckShowcase.host1.wlan[0].mac.dcf packetReceivedFromPeerWithoutRetry:sum(packetBytes) 0
scalar BlockAckShowcase.host1.wlan[0].mac.dcf packetSentToPeer:count 0
scalar BlockAckShowcase.host1.wlan[0].mac.dcf packetSentToPeer:sum(packetBytes) 0
scalar BlockAckShowcase.host1.wlan[0].mac.dcf packetSentToPeerUnicast:count 0
scalar BlockAckShowcase.host1.wlan[0].mac.dcf packetSentToPeerUnicast:sum(packetBytes) 0
scalar BlockAckShowcase.host1.wlan[0].mac.dcf packetSentToPeerMulticast:count 0
scalar BlockAckShowcase.host1.wlan[0].mac.dcf packetSentToPeerMulticast:sum(packetBytes) 0
scalar BlockAckShowcase.host1.wlan[0].mac.dcf packetSentToPeerBroadcast:count 0
scalar BlockAckShowcase.host1.wlan[0].mac.dcf packetSentToPeerBroadcast:sum(packetBytes) 0
scalar BlockAckShowcase.host1.wlan[0].mac.dcf packetSentToPeerWithRetry:count 0
scalar BlockAckShowcase.host1.wlan[0].mac.dcf packetSentToPeerWithRetry:sum(packetBytes) 0
scalar BlockAckShowcase.host1.wlan[0].mac.dcf packetSentToPeerWithoutRetry:count 0
scalar BlockAckShowcase.host1.wlan[0].mac.dcf packetSentToPeerWithoutRetry:sum(packetBytes) 0
scalar BlockAckShowcase.host1.wlan[0].mac.dcf packetDrop:count 0
scalar BlockAckShowcase.host1.wlan[0].mac.dcf packetDrop:sum(packetBytes) 0
scalar BlockAckShowcase.host1.wlan[0].mac.dcf packetDropNotAddressedToUs:count 0
scalar BlockAckShowcase.host1.wlan[0].mac.dcf packetDropNotAddressedToUs:sum(packetBytes) 0
scalar BlockAckShowcase.host1.wlan[0].mac.dcf packetDropQueueOverflow:count 0
scalar BlockAckShowcase.host1.wlan[0].mac.dcf packetDropQueueOverflow:sum(packetBytes) 0
scalar BlockAckShowcase.host1.wlan[0].mac.dcf packetDropRetryLimitReached:count 0
scalar BlockAckShowcase.host1.wlan[0].mac.dcf packetDropRetryLimitReached:sum(packetBytes) 0
scalar BlockAckShowcase.host1.wlan[0].mac.dcf linkBroken:count 0
scalar BlockAckShowcase.host1.wlan[0].mac.hcf.edca.edcaf[0].pendingQueue queueLength:last 0
scalar BlockAckShowcase.host1.wlan[0].mac.hcf.edca.edcaf[0].pendingQueue queueLength:max 0
scalar BlockAckShowcase.host1.wlan[0].mac.hcf.edca.edcaf[0].pendingQueue queueLength:timeavg 0
scalar BlockAckShowcase.host1.wlan[0].mac.hcf.edca.edcaf[0].pendingQueue queueBitLength:last 0
scalar BlockAckShowcase.host1.wlan[0].mac.hcf.edca.edcaf[0].pendingQueue queueBitLength:max 0
scalar BlockAckShowcase.host1.wlan[0].mac.hcf.edca.edcaf[0].pendingQueue queueBitLength:timeavg 0
scalar BlockAckShowcase.host1.wlan[0].mac.hcf.edca.edcaf[0].pendingQueue outgoingPackets:count 0
scalar BlockAckShowcase.host1.wlan[0].mac.hcf.edca.edcaf[0].pendingQueue outgoingPacketLengths:sum 0
scalar BlockAckShowcase.host1.wlan[0].mac.hcf.edca.edcaf[0].pendingQueue incomingPackets:count 0
scalar BlockAckShowcase.host1.wlan[0].mac.hcf.edca.edcaf[0].pendingQueue incomingPacketLengths:sum 0
scalar BlockAckShowcase.host1.wlan[0].mac.hcf.edca.edcaf[0].pendingQueue droppedPacketsQueueOverflow:count 0
scalar BlockAckShowcase.host1.wlan[0].mac.hcf.edca.edcaf[0].pendingQueue droppedPacketLengthsQueueOverflow:sum 0
scalar BlockAckShowcase.host1.wlan[0].mac.hcf.edca.edcaf[0].inProgressFrames queueLength:max 0
scalar BlockAckShowcase.host1.wlan[0].mac.hcf.edca.edcaf[0].inProgressFrames queueLength:timeavg 0
scalar BlockAckShowcase.host1.wlan[0].mac.hcf.edca.edcaf[0].contention channelAccessGranted:count 0
scalar BlockAckShowcase.host1.wlan[0].mac.hcf.edca.edcaf[0].contention stateChanged:count 3706
scalar BlockAckShowcase.host1.wlan[0].mac.hcf.edca.edcaf[0].txopProcedure txopEnded:count 0
scalar BlockAckShowcase.host1.wlan[0].mac.hcf.edca.edcaf[0].recoveryProcedure retryLimitReached:count 0
scalar BlockAckShowcase.host1.wlan[0].mac.hcf.edca.edcaf[0] channelOwnershipChanged:count 0
scalar BlockAckShowcase.host1.wlan[0].mac.hcf.edca.edcaf[0] packetSentToPeer:count 0
scalar BlockAckShowcase.host1.wlan[0].mac.hcf.edca.edcaf[0] packetSentToPeer:sum(packetBytes) 0
scalar BlockAckShowcase.host1.wlan[0].mac.hcf.edca.edcaf[0] packetSentToPeerUnicast:count 0
scalar BlockAckShowcase.host1.wlan[0].mac.hcf.edca.edcaf[0] packetSentToPeerUnicast:sum(packetBytes) 0
scalar BlockAckShowcase.host1.wlan[0].mac.hcf.edca.edcaf[0] packetSentToPeerMulticast:count 0
scalar BlockAckShowcase.host1.wlan[0].mac.hcf.edca.edcaf[0] packetSentToPeerMulticast:sum(packetBytes) 0
scalar BlockAckShowcase.host1.wlan[0].mac.hcf.edca.edcaf[0] packetSentToPeerBroadcast:count 0
scalar BlockAckShowcase.host1.wlan[0].mac.hcf.edca.edcaf[0] packetSentToPeerBroadcast:sum(packetBytes) 0
scalar BlockAckShowcase.host1.wlan[0].mac.hcf.edca.edcaf[0] packetSentToPeerWithRetry:count 0
scalar BlockAckShowcase.host1.wlan[0].mac.hcf.edca.edcaf[0] packetSentToPeerWithRetry:sum(packetBytes) 0
scalar BlockAckShowcase.host1.wlan[0].mac.hcf.edca.edcaf[0] packetSentToPeerWithoutRetry:count 0
scalar BlockAckShowcase.host1.wlan[0].mac.hcf.edca.edcaf[0] packetSentToPeerWithoutRetry:sum(packetBytes) 0
scalar BlockAckShowcase.host1.wlan[0].mac.hcf.edca.edcaf[1].pendingQueue queueLength:last 100
scalar BlockAckShowcase.host1.wlan[0].mac.hcf.edca.edcaf[1].pendingQueue queueLength:max 100
scalar BlockAckShowcase.host1.wlan[0].mac.hcf.edca.edcaf[1].pendingQueue queueLength:timeavg 99.701430335114
scalar BlockAckShowcase.host1.wlan[0].mac.hcf.edca.edcaf[1].pendingQueue queueBitLength:last 612800
scalar BlockAckShowcase.host1.wlan[0].mac.hcf.edca.edcaf[1].pendingQueue queueBitLength:max 1012800
scalar BlockAckShowcase.host1.wlan[0].mac.hcf.edca.edcaf[1].pendingQueue queueBitLength:timeavg 663397.46972198
scalar BlockAckShowcase.host1.wlan[0].mac.hcf.edca.edcaf[1].pendingQueue outgoingPackets:count 534
scalar BlockAckShowcase.host1.wlan[0].mac.hcf.edca.edcaf[1].pendingQueue outgoingPacketLengths:sum 3688352
scalar BlockAckShowcase.host1.wlan[0].mac.hcf.edca.edcaf[1].pendingQueue incomingPackets:count 20000
scalar BlockAckShowcase.host1.wlan[0].mac.hcf.edca.edcaf[1].pendingQueue incomingPacketLengths:sum 202560000
scalar BlockAckShowcase.host1.wlan[0].mac.hcf.edca.edcaf[1].pendingQueue droppedPacketsQueueOverflow:count 19366
scalar BlockAckShowcase.host1.wlan[0].mac.hcf.edca.edcaf[1].pendingQueue droppedPacketLengthsQueueOverflow:sum 198258848
scalar BlockAckShowcase.host1.wlan[0].mac.hcf.edca.edcaf[1].inProgressFrames queueLength:max 7
scalar BlockAckShowcase.host1.wlan[0].mac.hcf.edca.edcaf[1].inProgressFrames queueLength:timeavg 4.44286774802
scalar BlockAckShowcase.host1.wlan[0].mac.hcf.edca.edcaf[1].contention channelAccessGranted:count 917
scalar BlockAckShowcase.host1.wlan[0].mac.hcf.edca.edcaf[1].contention stateChanged:count 7376
scalar BlockAckShowcase.host1.wlan[0].mac.hcf.edca.edcaf[1].txopProcedure txopEnded:count 917
scalar BlockAckShowcase.host1.wlan[0].mac.hcf.edca.edcaf[1].recoveryProcedure retryLimitReached:count 0
scalar BlockAckShowcase.host1.wlan[0].mac.hcf.edca.edcaf[1] channelOwnershipChanged:count 1834
scalar BlockAckShowcase.host1.wlan[0].mac.hcf.edca.edcaf[1] packetSentToPeer:count 917
scalar BlockAckShowcase.host1.wlan[0].mac.hcf.edca.edcaf[1] packetSentToPeer:sum(packetBytes) 697234
scalar BlockAckShowcase.host1.wlan[0].mac.hcf.edca.edcaf[1] packetSentToPeerUnicast:count 917
scalar BlockAckShowcase.host1.wlan[0].mac.hcf.edca.edcaf[1] packetSentToPeerUnicast:sum(packetBytes) 697234
scalar BlockAckShowcase.host1.wlan[0].mac.hcf.edca.edcaf[1] packetSentToPeerMulticast:count 0
scalar BlockAckShowcase.host1.wlan[0].mac.hcf.edca.edcaf[1] packetSentToPeerMulticast:sum(packetBytes) 0
scalar BlockAckShowcase.host1.wlan[0].mac.hcf.edca.edcaf[1] packetSentToPeerBroadcast:count 0
scalar BlockAckShowcase.host1.wlan[0].mac.hcf.edca.edcaf[1] packetSentToPeerBroadcast:sum(packetBytes) 0
scalar BlockAckShowcase.host1.wlan[0].mac.hcf.edca.edcaf[1] packetSentToPeerWithRetry:count 42
scalar BlockAckShowcase.host1.wlan[0].mac.hcf.edca.edcaf[1] packetSentToPeerWithRetry:sum(packetBytes) 74172
scalar BlockAckShowcase.host1.wlan[0].mac.hcf.edca.edcaf[1] packetSentToPeerWithoutRetry:count 875
scalar BlockAckShowcase.host1.wlan[0].mac.hcf.edca.edcaf[1] packetSentToPeerWithoutRetry:sum(packetBytes) 623062
scalar BlockAckShowcase.host1.wlan[0].mac.hcf.edca.edcaf[2].pendingQueue queueLength:last 0
scalar BlockAckShowcase.host1.wlan[0].mac.hcf.edca.edcaf[2].pendingQueue queueLength:max 0
scalar BlockAckShowcase.host1.wlan[0].mac.hcf.edca.edcaf[2].pendingQueue queueLength:timeavg 0
scalar BlockAckShowcase.host1.wlan[0].mac.hcf.edca.edcaf[2].pendingQueue queueBitLength:last 0
scalar BlockAckShowcase.host1.wlan[0].mac.hcf.edca.edcaf[2].pendingQueue queueBitLength:max 0
scalar BlockAckShowcase.host1.wlan[0].mac.hcf.edca.edcaf[2].pendingQueue queueBitLength:timeavg 0
scalar BlockAckShowcase.host1.wlan[0].mac.hcf.edca.edcaf[2].pendingQueue outgoingPackets:count 0
scalar BlockAckShowcase.host1.wlan[0].mac.hcf.edca.edcaf[2].pendingQueue outgoingPacketLengths:sum 0
scalar BlockAckShowcase.host1.wlan[0].mac.hcf.edca.edcaf[2].pendingQueue incomingPackets:count 0
scalar BlockAckShowcase.host1.wlan[0].mac.hcf.edca.edcaf[2].pendingQueue incomingPacketLengths:sum 0
scalar BlockAckShowcase.host1.wlan[0].mac.hcf.edca.edcaf[2].pendingQueue droppedPacketsQueueOverflow:count 0
scalar BlockAckShowcase.host1.wlan[0].mac.hcf.edca.edcaf[2].pendingQueue droppedPacketLengthsQueueOverflow:sum 0
scalar BlockAckShowcase.host1.wlan[0].mac.hcf.edca.edcaf[2].inProgressFrames queueLength:max 0
scalar BlockAckShowcase.host1.wlan[0].mac.hcf.edca.edcaf[2].inProgressFrames queueLength:timeavg 0
scalar BlockAckShowcase.host1.wlan[0].mac.hcf.edca.edcaf[2].contention channelAccessGranted:count 0
scalar BlockAckShowcase.host1.wlan[0].mac.hcf.edca.edcaf[2].contention stateChanged:count 3706
scalar BlockAckShowcase.host1.wlan[0].mac.hcf.edca.edcaf[2].txopProcedure txopEnded:count 0
scalar BlockAckShowcase.host1.wlan[0].mac.hcf.edca.edcaf[2].recoveryProcedure retryLimitReached:count 0
scalar BlockAckShowcase.host1.wlan[0].mac.hcf.edca.edcaf[2] channelOwnershipChanged:count 0
scalar BlockAckShowcase.host1.wlan[0].mac.hcf.edca.edcaf[2] packetSentToPeer:count 0
scalar BlockAckShowcase.host1.wlan[0].mac.hcf.edca.edcaf[2] packetSentToPeer:sum(packetBytes) 0
scalar BlockAckShowcase.host1.wlan[0].mac.hcf.edca.edcaf[2] packetSentToPeerUnicast:count 0
scalar BlockAckShowcase.host1.wlan[0].mac.hcf.edca.edcaf[2] packetSentToPeerUnicast:sum(packetBytes) 0
scalar BlockAckShowcase.host1.wlan[0].mac.hcf.edca.edcaf[2] packetSentToPeerMulticast:count 0
scalar BlockAckShowcase.host1.wlan[0].mac.hcf.edca.edcaf[2] packetSentToPeerMulticast:sum(packetBytes) 0
scalar BlockAckShowcase.host1.wlan[0].mac.hcf.edca.edcaf[2] packetSentToPeerBroadcast:count 0
scalar BlockAckShowcase.host1.wlan[0].mac.hcf.edca.edcaf[2] packetSentToPeerBroadcast:sum(packetBytes) 0
scalar BlockAckShowcase.host1.wlan[0].mac.hcf.edca.edcaf[2] packetSentToPeerWithRetry:count 0
scalar BlockAckShowcase.host1.wlan[0].mac.hcf.edca.edcaf[2] packetSentToPeerWithRetry:sum(packetBytes) 0
scalar BlockAckShowcase.host1.wlan[0].mac.hcf.edca.edcaf[2] packetSentToPeerWithoutRetry:count 0
scalar BlockAckShowcase.host1.wlan[0].mac.hcf.edca.edcaf[2] packetSentToPeerWithoutRetry:sum(packetBytes) 0
scalar BlockAckShowcase.host1.wlan[0].mac.hcf.edca.edcaf[3].pendingQueue queueLength:last 0
scalar BlockAckShowcase.host1.wlan[0].mac.hcf.edca.edcaf[3].pendingQueue queueLength:max 1
scalar BlockAckShowcase.host1.wlan[0].mac.hcf.edca.edcaf[3].pendingQueue queueLength:timeavg 0.000846
scalar BlockAckShowcase.host1.wlan[0].mac.hcf.edca.edcaf[3].pendingQueue queueBitLength:last 0
scalar BlockAckShowcase.host1.wlan[0].mac.hcf.edca.edcaf[3].pendingQueue queueBitLength:max 296
scalar BlockAckShowcase.host1.wlan[0].mac.hcf.edca.edcaf[3].pendingQueue queueBitLength:timeavg 0.250416
scalar BlockAckShowcase.host1.wlan[0].mac.hcf.edca.edcaf[3].pendingQueue outgoingPackets:count 1
scalar BlockAckShowcase.host1.wlan[0].mac.hcf.edca.edcaf[3].pendingQueue outgoingPacketLengths:sum 296
scalar BlockAckShowcase.host1.wlan[0].mac.hcf.edca.edcaf[3].pendingQueue incomingPackets:count 1
scalar BlockAckShowcase.host1.wlan[0].mac.hcf.edca.edcaf[3].pendingQueue incomingPacketLengths:sum 296
scalar BlockAckShowcase.host1.wlan[0].mac.hcf.edca.edcaf[3].pendingQueue droppedPacketsQueueOverflow:count 0
scalar BlockAckShowcase.host1.wlan[0].mac.hcf.edca.edcaf[3].pendingQueue droppedPacketLengthsQueueOverflow:sum 0
scalar BlockAckShowcase.host1.wlan[0].mac.hcf.edca.edcaf[3].inProgressFrames queueLength:max 1
scalar BlockAckShowcase.host1.wlan[0].mac.hcf.edca.edcaf[3].inProgressFrames queueLength:timeavg 8.761726e-05
scalar BlockAckShowcase.host1.wlan[0].mac.hcf.edca.edcaf[3].contention channelAccessGranted:count 1
scalar BlockAckShowcase.host1.wlan[0].mac.hcf.edca.edcaf[3].contention stateChanged:count 3710
scalar BlockAckShowcase.host1.wlan[0].mac.hcf.edca.edcaf[3].txopProcedure txopEnded:count 1
scalar BlockAckShowcase.host1.wlan[0].mac.hcf.edca.edcaf[3].recoveryProcedure retryLimitReached:count 0
scalar BlockAckShowcase.host1.wlan[0].mac.hcf.edca.edcaf[3] channelOwnershipChanged:count 2
scalar BlockAckShowcase.host1.wlan[0].mac.hcf.edca.edcaf[3] packetSentToPeer:count 1
scalar BlockAckShowcase.host1.wlan[0].mac.hcf.edca.edcaf[3] packetSentToPeer:sum(packetBytes) 37
scalar BlockAckShowcase.host1.wlan[0].mac.hcf.edca.edcaf[3] packetSentToPeerUnicast:count 1
scalar BlockAckShowcase.host1.wlan[0].mac.hcf.edca.edcaf[3] packetSentToPeerUnicast:sum(packetBytes) 37
scalar BlockAckShowcase.host1.wlan[0].mac.hcf.edca.edcaf[3] packetSentToPeerMulticast:count 0
scalar BlockAckShowcase.host1.wlan[0].mac.hcf.edca.edcaf[3] packetSentToPeerMulticast:sum(packetBytes) 0
scalar BlockAckShowcase.host1.wlan[0].mac.hcf.edca.edcaf[3] packetSentToPeerBroadcast:count 0
scalar BlockAckShowcase.host1.wlan[0].mac.hcf.edca.edcaf[3] packetSentToPeerBroadcast:sum(packetBytes) 0
scalar BlockAckShowcase.host1.wlan[0].mac.hcf.edca.edcaf[3] packetSentToPeerWithRetry:count 0
scalar BlockAckShowcase.host1.wlan[0].mac.hcf.edca.edcaf[3] packetSentToPeerWithRetry:sum(packetBytes) 0
scalar BlockAckShowcase.host1.wlan[0].mac.hcf.edca.edcaf[3] packetSentToPeerWithoutRetry:count 1
scalar BlockAckShowcase.host1.wlan[0].mac.hcf.edca.edcaf[3] packetSentToPeerWithoutRetry:sum(packetBytes) 37
scalar BlockAckShowcase.host1.wlan[0].mac.hcf.edca.mgmtAndNonQoSRecoveryProcedure retryLimitReached:count 0
scalar BlockAckShowcase.host1.wlan[0].mac.hcf.originatorMacDataService packetAggregated:count 0
scalar BlockAckShowcase.host1.wlan[0].mac.hcf.originatorMacDataService packetFragmented:count 0
scalar BlockAckShowcase.host1.wlan[0].mac.hcf.recipientMacDataService packetDeaggregated:count 0
scalar BlockAckShowcase.host1.wlan[0].mac.hcf.recipientMacDataService packetDefragmented:count 1
scalar BlockAckShowcase.host1.wlan[0].mac.hcf.recipientMacDataService packetDropDuplicateDetected:count 0
scalar BlockAckShowcase.host1.wlan[0].mac.hcf.recipientMacDataService packetDropDuplicateDetected:sum(packetBytes) 0
scalar BlockAckShowcase.host1.wlan[0].mac.hcf blockAckAgreementDeleted:count 0
scalar BlockAckShowcase.host1.wlan[0].mac.hcf blockAckAgreementAdded:count 1
scalar BlockAckShowcase.host1.wlan[0].mac.hcf edcaCollisionDetected:count 0
scalar BlockAckShowcase.host1.wlan[0].mac.hcf frameSequenceFinished:count 918
scalar BlockAckShowcase.host1.wlan[0].mac.hcf packetReceivedFromPeerUnicast:count 179
scalar BlockAckShowcase.host1.wlan[0].mac.hcf packetReceivedFromPeerUnicast:sum(packetBytes) 19641
scalar BlockAckShowcase.host1.wlan[0].mac.hcf packetReceivedFromPeerMulticast:count 0
scalar BlockAckShowcase.host1.wlan[0].mac.hcf packetReceivedFromPeerMulticast:sum(packetBytes) 0
scalar BlockAckShowcase.host1.wlan[0].mac.hcf packetReceivedFromPeerBroadcast:count 0
scalar BlockAckShowcase.host1.wlan[0].mac.hcf packetReceivedFromPeerBroadcast:sum(packetBytes) 0
scalar BlockAckShowcase.host1.wlan[0].mac.hcf packetReceivedFromPeerWithRetry:count 0
scalar BlockAckShowcase.host1.wlan[0].mac.hcf packetReceivedFromPeerWithRetry:sum(packetBytes) 0
scalar BlockAckShowcase.host1.wlan[0].mac.hcf packetReceivedFromPeerWithoutRetry:count 179
scalar BlockAckShowcase.host1.wlan[0].mac.hcf packetReceivedFromPeerWithoutRetry:sum(packetBytes) 19641
scalar BlockAckShowcase.host1.wlan[0].mac.hcf packetSentToPeer:count 919
scalar BlockAckShowcase.host1.wlan[0].mac.hcf packetSentToPeer:sum(packetBytes) 697285
scalar BlockAckShowcase.host1.wlan[0].mac.hcf packetSentToPeerUnicast:count 919
scalar BlockAckShowcase.host1.wlan[0].mac.hcf packetSentToPeerUnicast:sum(packetBytes) 697285
scalar BlockAckShowcase.host1.wlan[0].mac.hcf packetSentToPeerMulticast:count 0
scalar BlockAckShowcase.host1.wlan[0].mac.hcf packetSentToPeerMulticast:sum(packetBytes) 0
scalar BlockAckShowcase.host1.wlan[0].mac.hcf packetSentToPeerBroadcast:count 0
scalar BlockAckShowcase.host1.wlan[0].mac.hcf packetSentToPeerBroadcast:sum(packetBytes) 0
scalar BlockAckShowcase.host1.wlan[0].mac.hcf packetSentToPeerWithRetry:count 42
scalar BlockAckShowcase.host1.wlan[0].mac.hcf packetSentToPeerWithRetry:sum(packetBytes) 74172
scalar BlockAckShowcase.host1.wlan[0].mac.hcf packetSentToPeerWithoutRetry:count 877
scalar BlockAckShowcase.host1.wlan[0].mac.hcf packetSentToPeerWithoutRetry:sum(packetBytes) 623113
scalar BlockAckShowcase.host1.wlan[0].mac.hcf packetDrop:count 19366
scalar BlockAckShowcase.host1.wlan[0].mac.hcf packetDrop:sum(packetBytes) 24782356
scalar BlockAckShowcase.host1.wlan[0].mac.hcf packetDropNotAddressedToUs:count 0
scalar BlockAckShowcase.host1.wlan[0].mac.hcf packetDropNotAddressedToUs:sum(packetBytes) 0
scalar BlockAckShowcase.host1.wlan[0].mac.hcf packetDropQueueOverflow:count 19366
scalar BlockAckShowcase.host1.wlan[0].mac.hcf packetDropQueueOverflow:sum(packetBytes) 24782356
scalar BlockAckShowcase.host1.wlan[0].mac.hcf packetDropRetryLimitReached:count 0
scalar BlockAckShowcase.host1.wlan[0].mac.hcf packetDropRetryLimitReached:sum(packetBytes) 0
scalar BlockAckShowcase.host1.wlan[0].mac.hcf linkBroken:count 0
scalar BlockAckShowcase.host1.wlan[0].mac packetReceivedFromLower:count 191
scalar BlockAckShowcase.host1.wlan[0].mac packetReceivedFromLower:sum(packetBytes) 21327
scalar BlockAckShowcase.host1.wlan[0].mac packetSentToLower:count 919
scalar BlockAckShowcase.host1.wlan[0].mac packetSentToLower:sum(packetBytes) 697285
scalar BlockAckShowcase.host1.wlan[0].mac packetReceivedFromUpper:count 20000
scalar BlockAckShowcase.host1.wlan[0].mac packetReceivedFromUpper:sum(packetBytes) 24720000
scalar BlockAckShowcase.host1.wlan[0].mac packetSentToUpper:count 0
scalar BlockAckShowcase.host1.wlan[0].mac packetSentToUpper:sum(packetBytes) 0
scalar BlockAckShowcase.host1.wlan[0].mac packetDrop:count 19378
scalar BlockAckShowcase.host1.wlan[0].mac packetDrop:sum(packetBytes) 24784042
scalar BlockAckShowcase.host1.wlan[0].mac packetDropIncorrectlyReceived:count 12
scalar BlockAckShowcase.host1.wlan[0].mac packetDropIncorrectlyReceived:sum(packetBytes) 1686
scalar BlockAckShowcase.host1.wlan[0].mac packetDropNotAddressedToUs:count 0
scalar BlockAckShowcase.host1.wlan[0].mac packetDropNotAddressedToUs:sum(packetBytes) 0
scalar BlockAckShowcase.host1.wlan[0].mac packetDropQueueOverflow:count 19366
scalar BlockAckShowcase.host1.wlan[0].mac packetDropQueueOverflow:sum(packetBytes) 24782356
scalar BlockAckShowcase.host1.wlan[0].mac packetDropRetryLimitReached:count 0
scalar BlockAckShowcase.host1.wlan[0].mac packetDropRetryLimitReached:sum(packetBytes) 0
scalar BlockAckShowcase.host1.wlan[0].mac packetDropDuplicateDetected:count 0
scalar BlockAckShowcase.host1.wlan[0].mac packetDropDuplicateDetected:sum(packetBytes) 0
scalar BlockAckShowcase.host1.wlan[0].mac packetDropOther:count 0
scalar BlockAckShowcase.host1.wlan[0].mac packetDropOther:sum(packetBytes) 0
scalar BlockAckShowcase.host1.wlan[0].mac linkBroken:count 0
scalar BlockAckShowcase.host1.wlan[0].radio radioMode:count 1841
scalar BlockAckShowcase.host1.wlan[0].radio receptionState:count 2221
scalar BlockAckShowcase.host1.wlan[0].radio transmissionState:count 3676
scalar BlockAckShowcase.host1.wlan[0] packetDropInterfaceDown:count 0
scalar BlockAckShowcase.host1.wlan[0] packetDropInterfaceDown:sum(packetBytes) 0
scalar BlockAckShowcase.host1.wlan[0] packetDropNoCarrier:count 0
scalar BlockAckShowcase.host1.wlan[0] packetDropNoCarrier:sum(packetBytes) 0
scalar BlockAckShowcase.host1.ipv4.ip packetDropAddressResolutionFailed:count 0
scalar BlockAckShowcase.host1.ipv4.ip packetDropAddressResolutionFailed:sum(packetBytes) 0
scalar BlockAckShowcase.host1.ipv4.ip packetDropHopLimitReached:count 0
scalar BlockAckShowcase.host1.ipv4.ip packetDropHopLimitReached:sum(packetBytes) 0
scalar BlockAckShowcase.host1.ipv4.ip packetDropForwardingDisabled:count 0
scalar BlockAckShowcase.host1.ipv4.ip packetDropForwardingDisabled:sum(packetBytes) 0
scalar BlockAckShowcase.host1.ipv4.ip packetDropLifetimeExpired:count 0
scalar BlockAckShowcase.host1.ipv4.ip packetDropLifetimeExpired:sum(packetBytes) 0
scalar BlockAckShowcase.host1.ipv4.ip packetDropNoInterfaceFound:count 0
scalar BlockAckShowcase.host1.ipv4.ip packetDropNoInterfaceFound:sum(packetBytes) 0
scalar BlockAckShowcase.host1.ipv4.ip packetDropNoRouteFound:count 0
scalar BlockAckShowcase.host1.ipv4.ip packetDropNoRouteFound:sum(packetBytes) 0
scalar BlockAckShowcase.host1.ipv4.ip packetDropUndefined:count 0
scalar BlockAckShowcase.host1.ipv4.ip packetDropUndefined:sum(packetBytes) 0
scalar BlockAckShowcase.host1.udp packetReceived:count 0
scalar BlockAckShowcase.host1.udp packetReceived:sum(packetBytes) 0
scalar BlockAckShowcase.host1.udp packetSent:count 20000
scalar BlockAckShowcase.host1.udp packetSent:sum(packetBytes) 24160000
scalar BlockAckShowcase.host1.udp passedUpPk:count 0
scalar BlockAckShowcase.host1.udp droppedPkWrongPort:count 0
scalar BlockAckShowcase.host1.udp droppedPkBadChecksum:count 0
scalar BlockAckShowcase.host1.app[0] "packets sent" 10000
scalar BlockAckShowcase.host1.app[0] "packets received" 0
scalar BlockAckShowcase.host1.app[0] packetReceived:count 0
scalar BlockAckShowcase.host1.app[0] packetReceived:sum(packetBytes) 0
scalar BlockAckShowcase.host1.app[0] packetSent:count 10000
scalar BlockAckShowcase.host1.app[0] packetSent:sum(packetBytes) 7000000
scalar BlockAckShowcase.host1.app[1] "packets sent" 10000
scalar BlockAckShowcase.host1.app[1] "packets received" 0
scalar BlockAckShowcase.host1.app[1] packetReceived:count 0
scalar BlockAckShowcase.host1.app[1] packetReceived:sum(packetBytes) 0
scalar BlockAckShowcase.host1.app[1] packetSent:count 10000
scalar BlockAckShowcase.host1.app[1] packetSent:sum(packetBytes) 17000000
scalar BlockAckShowcase.host2.lo[0].lo rcvdPkFromHl:count 0
scalar BlockAckShowcase.host2.lo[0].lo rcvdPkFromHl:sum(packetBytes) 0
scalar BlockAckShowcase.host2.lo[0].lo passedUpPk:count 0
scalar BlockAckShowcase.host2.lo[0].lo passedUpPk:sum(packetBytes) 0
scalar BlockAckShowcase.host2.lo[0] packetDropInterfaceDown:count 0
scalar BlockAckShowcase.host2.lo[0] packetDropInterfaceDown:sum(packetBytes) 0
scalar BlockAckShowcase.host2.lo[0] packetDropNoCarrier:count 0
scalar BlockAckShowcase.host2.lo[0] packetDropNoCarrier:sum(packetBytes) 0
scalar BlockAckShowcase.host2.wlan[0].mac.dcf.channelAccess.pendingQueue queueLength:last 0
scalar BlockAckShowcase.host2.wlan[0].mac.dcf.channelAccess.pendingQueue queueLength:max 0
scalar BlockAckShowcase.host2.wlan[0].mac.dcf.channelAccess.pendingQueue queueLength:timeavg 0
scalar BlockAckShowcase.host2.wlan[0].mac.dcf.channelAccess.pendingQueue queueBitLength:last 0
scalar BlockAckShowcase.host2.wlan[0].mac.dcf.channelAccess.pendingQueue queueBitLength:max 0
scalar BlockAckShowcase.host2.wlan[0].mac.dcf.channelAccess.pendingQueue queueBitLength:timeavg 0
scalar BlockAckShowcase.host2.wlan[0].mac.dcf.channelAccess.pendingQueue outgoingPackets:count 0
scalar BlockAckShowcase.host2.wlan[0].mac.dcf.channelAccess.pendingQueue outgoingPacketLengths:sum 0
scalar BlockAckShowcase.host2.wlan[0].mac.dcf.channelAccess.pendingQueue incomingPackets:count 0
scalar BlockAckShowcase.host2.wlan[0].mac.dcf.channelAccess.pendingQueue incomingPacketLengths:sum 0
scalar BlockAckShowcase.host2.wlan[0].mac.dcf.channelAccess.pendingQueue droppedPacketsQueueOverflow:count 0
scalar BlockAckShowcase.host2.wlan[0].mac.dcf.channelAccess.pendingQueue droppedPacketLengthsQueueOverflow:sum 0
scalar BlockAckShowcase.host2.wlan[0].mac.dcf.channelAccess.inProgressFrames queueLength:max 0
scalar BlockAckShowcase.host2.wlan[0].mac.dcf.channelAccess.inProgressFrames queueLength:timeavg 0
scalar BlockAckShowcase.host2.wlan[0].mac.dcf.channelAccess.contention channelAccessGranted:count 0
scalar BlockAckShowcase.host2.wlan[0].mac.dcf.channelAccess.contention stateChanged:count 4878
scalar BlockAckShowcase.host2.wlan[0].mac.dcf.channelAccess channelOwnershipChanged:count 0
scalar BlockAckShowcase.host2.wlan[0].mac.dcf.originatorMacDataService packetAggregated:count 0
scalar BlockAckShowcase.host2.wlan[0].mac.dcf.originatorMacDataService packetFragmented:count 0
scalar BlockAckShowcase.host2.wlan[0].mac.dcf.recipientMacDataService packetDeaggregated:count 0
scalar BlockAckShowcase.host2.wlan[0].mac.dcf.recipientMacDataService packetDefragmented:count 0
scalar BlockAckShowcase.host2.wlan[0].mac.dcf.recipientMacDataService packetDropDuplicateDetected:count 0
scalar BlockAckShowcase.host2.wlan[0].mac.dcf.recipientMacDataService packetDropDuplicateDetected:sum(packetBytes) 0
scalar BlockAckShowcase.host2.wlan[0].mac.dcf.recoveryProcedure retryLimitReached:count 0
scalar BlockAckShowcase.host2.wlan[0].mac.dcf frameSequenceFinished:count 0
scalar BlockAckShowcase.host2.wlan[0].mac.dcf packetReceivedFromPeer:count 0
scalar BlockAckShowcase.host2.wlan[0].mac.dcf packetReceivedFromPeer:sum(packetBytes) 0
scalar BlockAckShowcase.host2.wlan[0].mac.dcf packetReceivedFromPeerUnicast:count 0
scalar BlockAckShowcase.host2.wlan[0].mac.dcf packetReceivedFromPeerUnicast:sum(packetBytes) 0
scalar BlockAckShowcase.host2.wlan[0].mac.dcf packetReceivedFromPeerMulticast:count 0
scalar BlockAckShowcase.host2.wlan[0].mac.dcf packetReceivedFromPeerMulticast:sum(packetBytes) 0
scalar BlockAckShowcase.host2.wlan[0].mac.dcf packetReceivedFromPeerBroadcast:count 0
scalar BlockAckShowcase.host2.wlan[0].mac.dcf packetReceivedFromPeerBroadcast:sum(packetBytes) 0
scalar BlockAckShowcase.host2.wlan[0].mac.dcf packetReceivedFromPeerWithRetry:count 0
scalar BlockAckShowcase.host2.wlan[0].mac.dcf packetReceivedFromPeerWithRetry:sum(packetBytes) 0
scalar BlockAckShowcase.host2.wlan[0].mac.dcf packetReceivedFromPeerWithoutRetry:count 0
scalar BlockAckShowcase.host2.wlan[0].mac.dcf packetReceivedFromPeerWithoutRetry:sum(packetBytes) 0
scalar BlockAckShowcase.host2.wlan[0].mac.dcf packetSentToPeer:count 0
scalar BlockAckShowcase.host2.wlan[0].mac.dcf packetSentToPeer:sum(packetBytes) 0
scalar BlockAckShowcase.host2.wlan[0].mac.dcf packetSentToPeerUnicast:count 0
scalar BlockAckShowcase.host2.wlan[0].mac.dcf packetSentToPeerUnicast:sum(packetBytes) 0
scalar BlockAckShowcase.host2.wlan[0].mac.dcf packetSentToPeerMulticast:count 0
scalar BlockAckShowcase.host2.wlan[0].mac.dcf packetSentToPeerMulticast:sum(packetBytes) 0
scalar BlockAckShowcase.host2.wlan[0].mac.dcf packetSentToPeerBroadcast:count 0
scalar BlockAckShowcase.host2.wlan[0].mac.dcf packetSentToPeerBroadcast:sum(packetBytes) 0
scalar BlockAckShowcase.host2.wlan[0].mac.dcf packetSentToPeerWithRetry:count 0
scalar BlockAckShowcase.host2.wlan[0].mac.dcf packetSentToPeerWithRetry:sum(packetBytes) 0
scalar BlockAckShowcase.host2.wlan[0].mac.dcf packetSentToPeerWithoutRetry:count 0
scalar BlockAckShowcase.host2.wlan[0].mac.dcf packetSentToPeerWithoutRetry:sum(packetBytes) 0
scalar BlockAckShowcase.host2.wlan[0].mac.dcf packetDrop:count 0
scalar BlockAckShowcase.host2.wlan[0].mac.dcf packetDrop:sum(packetBytes) 0
scalar BlockAckShowcase.host2.wlan[0].mac.dcf packetDropNotAddressedToUs:count 0
scalar BlockAckShowcase.host2.wlan[0].mac.dcf packetDropNotAddressedToUs:sum(packetBytes) 0
scalar BlockAckShowcase.host2.wlan[0].mac.dcf packetDropQueueOverflow:count 0
scalar BlockAckShowcase.host2.wlan[0].mac.dcf packetDropQueueOverflow:sum(packetBytes) 0
scalar BlockAckShowcase.host2.wlan[0].mac.dcf packetDropRetryLimitReached:count 0
scalar BlockAckShowcase.host2.wlan[0].mac.dcf packetDropRetryLimitReached:sum(packetBytes) 0
scalar BlockAckShowcase.host2.wlan[0].mac.dcf linkBroken:count 0
scalar BlockAckShowcase.host2.wlan[0].mac.hcf.edca.edcaf[0].pendingQueue queueLength:last 0
scalar BlockAckShowcase.host2.wlan[0].mac.hcf.edca.edcaf[0].pendingQueue queueLength:max 0
scalar BlockAckShowcase.host2.wlan[0].mac.hcf.edca.edcaf[0].pendingQueue queueLength:timeavg 0
scalar BlockAckShowcase.host2.wlan[0].mac.hcf.edca.edcaf[0].pendingQueue queueBitLength:last 0
scalar BlockAckShowcase.host2.wlan[0].mac.hcf.edca.edcaf[0].pendingQueue queueBitLength:max 0
scalar BlockAckShowcase.host2.wlan[0].mac.hcf.edca.edcaf[0].pendingQueue queueBitLength:timeavg 0
scalar BlockAckShowcase.host2.wlan[0].mac.hcf.edca.edcaf[0].pendingQueue outgoingPackets:count 0
scalar BlockAckShowcase.host2.wlan[0].mac.hcf.edca.edcaf[0].pendingQueue outgoingPacketLengths:sum 0
scalar BlockAckShowcase.host2.wlan[0].mac.hcf.edca.edcaf[0].pendingQueue incomingPackets:count 0
scalar BlockAckShowcase.host2.wlan[0].mac.hcf.edca.edcaf[0].pendingQueue incomingPacketLengths:sum 0
scalar BlockAckShowcase.host2.wlan[0].mac.hcf.edca.edcaf[0].pendingQueue droppedPacketsQueueOverflow:count 0
scalar BlockAckShowcase.host2.wlan[0].mac.hcf.edca.edcaf[0].pendingQueue droppedPacketLengthsQueueOverflow:sum 0
scalar BlockAckShowcase.host2.wlan[0].mac.hcf.edca.edcaf[0].inProgressFrames queueLength:max 0
scalar BlockAckShowcase.host2.wlan[0].mac.hcf.edca.edcaf[0].inProgressFrames queueLength:timeavg 0
scalar BlockAckShowcase.host2.wlan[0].mac.hcf.edca.edcaf[0].contention channelAccessGranted:count 0
scalar BlockAckShowcase.host2.wlan[0].mac.hcf.edca.edcaf[0].contention stateChanged:count 4878
scalar BlockAckShowcase.host2.wlan[0].mac.hcf.edca.edcaf[0].txopProcedure txopEnded:count 0
scalar BlockAckShowcase.host2.wlan[0].mac.hcf.edca.edcaf[0].recoveryProcedure retryLimitReached:count 0
scalar BlockAckShowcase.host2.wlan[0].mac.hcf.edca.edcaf[0] channelOwnershipChanged:count 0
scalar BlockAckShowcase.host2.wlan[0].mac.hcf.edca.edcaf[0] packetSentToPeer:count 0
scalar BlockAckShowcase.host2.wlan[0].mac.hcf.edca.edcaf[0] packetSentToPeer:sum(packetBytes) 0
scalar BlockAckShowcase.host2.wlan[0].mac.hcf.edca.edcaf[0] packetSentToPeerUnicast:count 0
scalar BlockAckShowcase.host2.wlan[0].mac.hcf.edca.edcaf[0] packetSentToPeerUnicast:sum(packetBytes) 0
scalar BlockAckShowcase.host2.wlan[0].mac.hcf.edca.edcaf[0] packetSentToPeerMulticast:count 0
scalar BlockAckShowcase.host2.wlan[0].mac.hcf.edca.edcaf[0] packetSentToPeerMulticast:sum(packetBytes) 0
scalar BlockAckShowcase.host2.wlan[0].mac.hcf.edca.edcaf[0] packetSentToPeerBroadcast:count 0
scalar BlockAckShowcase.host2.wlan[0].mac.hcf.edca.edcaf[0] packetSentToPeerBroadcast:sum(packetBytes) 0
scalar BlockAckShowcase.host2.wlan[0].mac.hcf.edca.edcaf[0] packetSentToPeerWithRetry:count 0
scalar BlockAckShowcase.host2.wlan[0].mac.hcf.edca.edcaf[0] packetSentToPeerWithRetry:sum(packetBytes) 0
scalar BlockAckShowcase.host2.wlan[0].mac.hcf.edca.edcaf[0] packetSentToPeerWithoutRetry:count 0
scalar BlockAckShowcase.host2.wlan[0].mac.hcf.edca.edcaf[0] packetSentToPeerWithoutRetry:sum(packetBytes) 0
scalar BlockAckShowcase.host2.wlan[0].mac.hcf.edca.edcaf[1].pendingQueue queueLength:last 0
scalar BlockAckShowcase.host2.wlan[0].mac.hcf.edca.edcaf[1].pendingQueue queueLength:max 0
scalar BlockAckShowcase.host2.wlan[0].mac.hcf.edca.edcaf[1].pendingQueue queueLength:timeavg 0
scalar BlockAckShowcase.host2.wlan[0].mac.hcf.edca.edcaf[1].pendingQueue queueBitLength:last 0
scalar BlockAckShowcase.host2.wlan[0].mac.hcf.edca.edcaf[1].pendingQueue queueBitLength:max 0
scalar BlockAckShowcase.host2.wlan[0].mac.hcf.edca.edcaf[1].pendingQueue queueBitLength:timeavg 0
scalar BlockAckShowcase.host2.wlan[0].mac.hcf.edca.edcaf[1].pendingQueue outgoingPackets:count 0
scalar BlockAckShowcase.host2.wlan[0].mac.hcf.edca.edcaf[1].pendingQueue outgoingPacketLengths:sum 0
scalar BlockAckShowcase.host2.wlan[0].mac.hcf.edca.edcaf[1].pendingQueue incomingPackets:count 0
scalar BlockAckShowcase.host2.wlan[0].mac.hcf.edca.edcaf[1].pendingQueue incomingPacketLengths:sum 0
scalar BlockAckShowcase.host2.wlan[0].mac.hcf.edca.edcaf[1].pendingQueue droppedPacketsQueueOverflow:count 0
scalar BlockAckShowcase.host2.wlan[0].mac.hcf.edca.edcaf[1].pendingQueue droppedPacketLengthsQueueOverflow:sum 0
scalar BlockAckShowcase.host2.wlan[0].mac.hcf.edca.edcaf[1].inProgressFrames queueLength:max 0
scalar BlockAckShowcase.host2.wlan[0].mac.hcf.edca.edcaf[1].inProgressFrames queueLength:timeavg 0
scalar BlockAckShowcase.host2.wlan[0].mac.hcf.edca.edcaf[1].contention channelAccessGranted:count 0
scalar BlockAckShowcase.host2.wlan[0].mac.hcf.edca.edcaf[1].contention stateChanged:count 4878
scalar BlockAckShowcase.host2.wlan[0].mac.hcf.edca.edcaf[1].txopProcedure txopEnded:count 0
scalar BlockAckShowcase.host2.wlan[0].mac.hcf.edca.edcaf[1].recoveryProcedure retryLimitReached:count 0
scalar BlockAckShowcase.host2.wlan[0].mac.hcf.edca.edcaf[1] channelOwnershipChanged:count 0
scalar BlockAckShowcase.host2.wlan[0].mac.hcf.edca.edcaf[1] packetSentToPeer:count 0
scalar BlockAckShowcase.host2.wlan[0].mac.hcf.edca.edcaf[1] packetSentToPeer:sum(packetBytes) 0
scalar BlockAckShowcase.host2.wlan[0].mac.hcf.edca.edcaf[1] packetSentToPeerUnicast:count 0
scalar BlockAckShowcase.host2.wlan[0].mac.hcf.edca.edcaf[1] packetSentToPeerUnicast:sum(packetBytes) 0
scalar BlockAckShowcase.host2.wlan[0].mac.hcf.edca.edcaf[1] packetSentToPeerMulticast:count 0
scalar BlockAckShowcase.host2.wlan[0].mac.hcf.edca.edcaf[1] packetSentToPeerMulticast:sum(packetBytes) 0
scalar BlockAckShowcase.host2.wlan[0].mac.hcf.edca.edcaf[1] packetSentToPeerBroadcast:count 0
scalar BlockAckShowcase.host2.wlan[0].mac.hcf.edca.edcaf[1] packetSentToPeerBroadcast:sum(packetBytes) 0
scalar BlockAckShowcase.host2.wlan[0].mac.hcf.edca.edcaf[1] packetSentToPeerWithRetry:count 0
scalar BlockAckShowcase.host2.wlan[0].mac.hcf.edca.edcaf[1] packetSentToPeerWithRetry:sum(packetBytes) 0
scalar BlockAckShowcase.host2.wlan[0].mac.hcf.edca.edcaf[1] packetSentToPeerWithoutRetry:count 0
scalar BlockAckShowcase.host2.wlan[0].mac.hcf.edca.edcaf[1] packetSentToPeerWithoutRetry:sum(packetBytes) 0
scalar BlockAckShowcase.host2.wlan[0].mac.hcf.edca.edcaf[2].pendingQueue queueLength:last 0
scalar BlockAckShowcase.host2.wlan[0].mac.hcf.edca.edcaf[2].pendingQueue queueLength:max 0
scalar BlockAckShowcase.host2.wlan[0].mac.hcf.edca.edcaf[2].pendingQueue queueLength:timeavg 0
scalar BlockAckShowcase.host2.wlan[0].mac.hcf.edca.edcaf[2].pendingQueue queueBitLength:last 0
scalar BlockAckShowcase.host2.wlan[0].mac.hcf.edca.edcaf[2].pendingQueue queueBitLength:max 0
scalar BlockAckShowcase.host2.wlan[0].mac.hcf.edca.edcaf[2].pendingQueue queueBitLength:timeavg 0
scalar BlockAckShowcase.host2.wlan[0].mac.hcf.edca.edcaf[2].pendingQueue outgoingPackets:count 0
scalar BlockAckShowcase.host2.wlan[0].mac.hcf.edca.edcaf[2].pendingQueue outgoingPacketLengths:sum 0
scalar BlockAckShowcase.host2.wlan[0].mac.hcf.edca.edcaf[2].pendingQueue incomingPackets:count 0
scalar BlockAckShowcase.host2.wlan[0].mac.hcf.edca.edcaf[2].pendingQueue incomingPacketLengths:sum 0
scalar BlockAckShowcase.host2.wlan[0].mac.hcf.edca.edcaf[2].pendingQueue droppedPacketsQueueOverflow:count 0
scalar BlockAckShowcase.host2.wlan[0].mac.hcf.edca.edcaf[2].pendingQueue droppedPacketLengthsQueueOverflow:sum 0
scalar BlockAckShowcase.host2.wlan[0].mac.hcf.edca.edcaf[2].inProgressFrames queueLength:max 0
scalar BlockAckShowcase.host2.wlan[0].mac.hcf.edca.edcaf[2].inProgressFrames queueLength:timeavg 0
scalar BlockAckShowcase.host2.wlan[0].mac.hcf.edca.edcaf[2].contention channelAccessGranted:count 0
scalar BlockAckShowcase.host2.wlan[0].mac.hcf.edca.edcaf[2].contention stateChanged:count 4878
scalar BlockAckShowcase.host2.wlan[0].mac.hcf.edca.edcaf[2].txopProcedure txopEnded:count 0
scalar BlockAckShowcase.host2.wlan[0].mac.hcf.edca.edcaf[2].recoveryProcedure retryLimitReached:count 0
scalar BlockAckShowcase.host2.wlan[0].mac.hcf.edca.edcaf[2] channelOwnershipChanged:count 0
scalar BlockAckShowcase.host2.wlan[0].mac.hcf.edca.edcaf[2] packetSentToPeer:count 0
scalar BlockAckShowcase.host2.wlan[0].mac.hcf.edca.edcaf[2] packetSentToPeer:sum(packetBytes) 0
scalar BlockAckShowcase.host2.wlan[0].mac.hcf.edca.edcaf[2] packetSentToPeerUnicast:count 0
scalar BlockAckShowcase.host2.wlan[0].mac.hcf.edca.edcaf[2] packetSentToPeerUnicast:sum(packetBytes) 0
scalar BlockAckShowcase.host2.wlan[0].mac.hcf.edca.edcaf[2] packetSentToPeerMulticast:count 0
scalar BlockAckShowcase.host2.wlan[0].mac.hcf.edca.edcaf[2] packetSentToPeerMulticast:sum(packetBytes) 0
scalar BlockAckShowcase.host2.wlan[0].mac.hcf.edca.edcaf[2] packetSentToPeerBroadcast:count 0
scalar BlockAckShowcase.host2.wlan[0].mac.hcf.edca.edcaf[2] packetSentToPeerBroadcast:sum(packetBytes) 0
scalar BlockAckShowcase.host2.wlan[0].mac.hcf.edca.edcaf[2] packetSentToPeerWithRetry:count 0
scalar BlockAckShowcase.host2.wlan[0].mac.hcf.edca.edcaf[2] packetSentToPeerWithRetry:sum(packetBytes) 0
scalar BlockAckShowcase.host2.wlan[0].mac.hcf.edca.edcaf[2] packetSentToPeerWithoutRetry:count 0
scalar BlockAckShowcase.host2.wlan[0].mac.hcf.edca.edcaf[2] packetSentToPeerWithoutRetry:sum(packetBytes) 0
scalar BlockAckShowcase.host2.wlan[0].mac.hcf.edca.edcaf[3].pendingQueue queueLength:last 0
scalar BlockAckShowcase.host2.wlan[0].mac.hcf.edca.edcaf[3].pendingQueue queueLength:max 1
scalar BlockAckShowcase.host2.wlan[0].mac.hcf.edca.edcaf[3].pendingQueue queueLength:timeavg 0.000134
scalar BlockAckShowcase.host2.wlan[0].mac.hcf.edca.edcaf[3].pendingQueue queueBitLength:last 0
scalar BlockAckShowcase.host2.wlan[0].mac.hcf.edca.edcaf[3].pendingQueue queueBitLength:max 296
scalar BlockAckShowcase.host2.wlan[0].mac.hcf.edca.edcaf[3].pendingQueue queueBitLength:timeavg 0.039664
scalar BlockAckShowcase.host2.wlan[0].mac.hcf.edca.edcaf[3].pendingQueue outgoingPackets:count 1
scalar BlockAckShowcase.host2.wlan[0].mac.hcf.edca.edcaf[3].pendingQueue outgoingPacketLengths:sum 296
scalar BlockAckShowcase.host2.wlan[0].mac.hcf.edca.edcaf[3].pendingQueue incomingPackets:count 1
scalar BlockAckShowcase.host2.wlan[0].mac.hcf.edca.edcaf[3].pendingQueue incomingPacketLengths:sum 296
scalar BlockAckShowcase.host2.wlan[0].mac.hcf.edca.edcaf[3].pendingQueue droppedPacketsQueueOverflow:count 0
scalar BlockAckShowcase.host2.wlan[0].mac.hcf.edca.edcaf[3].pendingQueue droppedPacketLengthsQueueOverflow:sum 0
scalar BlockAckShowcase.host2.wlan[0].mac.hcf.edca.edcaf[3].inProgressFrames queueLength:max 1
scalar BlockAckShowcase.host2.wlan[0].mac.hcf.edca.edcaf[3].inProgressFrames queueLength:timeavg 8.761726e-05
scalar BlockAckShowcase.host2.wlan[0].mac.hcf.edca.edcaf[3].contention channelAccessGranted:count 1
scalar BlockAckShowcase.host2.wlan[0].mac.hcf.edca.edcaf[3].contention stateChanged:count 4882
scalar BlockAckShowcase.host2.wlan[0].mac.hcf.edca.edcaf[3].txopProcedure txopEnded:count 1
scalar BlockAckShowcase.host2.wlan[0].mac.hcf.edca.edcaf[3].recoveryProcedure retryLimitReached:count 0
scalar BlockAckShowcase.host2.wlan[0].mac.hcf.edca.edcaf[3] channelOwnershipChanged:count 2
scalar BlockAckShowcase.host2.wlan[0].mac.hcf.edca.edcaf[3] packetSentToPeer:count 1
scalar BlockAckShowcase.host2.wlan[0].mac.hcf.edca.edcaf[3] packetSentToPeer:sum(packetBytes) 37
scalar BlockAckShowcase.host2.wlan[0].mac.hcf.edca.edcaf[3] packetSentToPeerUnicast:count 1
scalar BlockAckShowcase.host2.wlan[0].mac.hcf.edca.edcaf[3] packetSentToPeerUnicast:sum(packetBytes) 37
scalar BlockAckShowcase.host2.wlan[0].mac.hcf.edca.edcaf[3] packetSentToPeerMulticast:count 0
scalar BlockAckShowcase.host2.wlan[0].mac.hcf.edca.edcaf[3] packetSentToPeerMulticast:sum(packetBytes) 0
scalar BlockAckShowcase.host2.wlan[0].mac.hcf.edca.edcaf[3] packetSentToPeerBroadcast:count 0
scalar BlockAckShowcase.host2.wlan[0].mac.hcf.edca.edcaf[3] packetSentToPeerBroadcast:sum(packetBytes) 0
scalar BlockAckShowcase.host2.wlan[0].mac.hcf.edca.edcaf[3] packetSentToPeerWithRetry:count 0
scalar BlockAckShowcase.host2.wlan[0].mac.hcf.edca.edcaf[3] packetSentToPeerWithRetry:sum(packetBytes) 0
scalar BlockAckShowcase.host2.wlan[0].mac.hcf.edca.edcaf[3] packetSentToPeerWithoutRetry:count 1
scalar BlockAckShowcase.host2.wlan[0].mac.hcf.edca.edcaf[3] packetSentToPeerWithoutRetry:sum(packetBytes) 37
scalar BlockAckShowcase.host2.wlan[0].mac.hcf.edca.mgmtAndNonQoSRecoveryProcedure retryLimitReached:count 0
scalar BlockAckShowcase.host2.wlan[0].mac.hcf.originatorMacDataService packetAggregated:count 0
scalar BlockAckShowcase.host2.wlan[0].mac.hcf.originatorMacDataService packetFragmented:count 0
scalar BlockAckShowcase.host2.wlan[0].mac.hcf.recipientMacDataService packetDeaggregated:count 0
scalar BlockAckShowcase.host2.wlan[0].mac.hcf.recipientMacDataService packetDefragmented:count 519
scalar BlockAckShowcase.host2.wlan[0].mac.hcf.recipientMacDataService packetDropDuplicateDetected:count 1
scalar BlockAckShowcase.host2.wlan[0].mac.hcf.recipientMacDataService packetDropDuplicateDetected:sum(packetBytes) 1766
scalar BlockAckShowcase.host2.wlan[0].mac.hcf blockAckAgreementDeleted:count 0
scalar BlockAckShowcase.host2.wlan[0].mac.hcf blockAckAgreementAdded:count 1
scalar BlockAckShowcase.host2.wlan[0].mac.hcf edcaCollisionDetected:count 0
scalar BlockAckShowcase.host2.wlan[0].mac.hcf frameSequenceFinished:count 1
scalar BlockAckShowcase.host2.wlan[0].mac.hcf packetReceivedFromPeerUnicast:count 699
scalar BlockAckShowcase.host2.wlan[0].mac.hcf packetReceivedFromPeerUnicast:sum(packetBytes) 489213
scalar BlockAckShowcase.host2.wlan[0].mac.hcf packetReceivedFromPeerMulticast:count 0
scalar BlockAckShowcase.host2.wlan[0].mac.hcf packetReceivedFromPeerMulticast:sum(packetBytes) 0
scalar BlockAckShowcase.host2.wlan[0].mac.hcf packetReceivedFromPeerBroadcast:count 0
scalar BlockAckShowcase.host2.wlan[0].mac.hcf packetReceivedFromPeerBroadcast:sum(packetBytes) 0
scalar BlockAckShowcase.host2.wlan[0].mac.hcf packetReceivedFromPeerWithRetry:count 20
scalar BlockAckShowcase.host2.wlan[0].mac.hcf packetReceivedFromPeerWithRetry:sum(packetBytes) 35320
scalar BlockAckShowcase.host2.wlan[0].mac.hcf packetReceivedFromPeerWithoutRetry:count 679
scalar BlockAckShowcase.host2.wlan[0].mac.hcf packetReceivedFromPeerWithoutRetry:sum(packetBytes) 453893
scalar BlockAckShowcase.host2.wlan[0].mac.hcf packetSentToPeer:count 191
scalar BlockAckShowcase.host2.wlan[0].mac.hcf packetSentToPeer:sum(packetBytes) 21327
scalar BlockAckShowcase.host2.wlan[0].mac.hcf packetSentToPeerUnicast:count 191
scalar BlockAckShowcase.host2.wlan[0].mac.hcf packetSentToPeerUnicast:sum(packetBytes) 21327
scalar BlockAckShowcase.host2.wlan[0].mac.hcf packetSentToPeerMulticast:count 0
scalar BlockAckShowcase.host2.wlan[0].mac.hcf packetSentToPeerMulticast:sum(packetBytes) 0
scalar BlockAckShowcase.host2.wlan[0].mac.hcf packetSentToPeerBroadcast:count 0
scalar BlockAckShowcase.host2.wlan[0].mac.hcf packetSentToPeerBroadcast:sum(packetBytes) 0
scalar BlockAckShowcase.host2.wlan[0].mac.hcf packetSentToPeerWithRetry:count 0
scalar BlockAckShowcase.host2.wlan[0].mac.hcf packetSentToPeerWithRetry:sum(packetBytes) 0
scalar BlockAckShowcase.host2.wlan[0].mac.hcf packetSentToPeerWithoutRetry:count 191
scalar BlockAckShowcase.host2.wlan[0].mac.hcf packetSentToPeerWithoutRetry:sum(packetBytes) 21327
scalar BlockAckShowcase.host2.wlan[0].mac.hcf packetDrop:count 1
scalar BlockAckShowcase.host2.wlan[0].mac.hcf packetDrop:sum(packetBytes) 1766
scalar BlockAckShowcase.host2.wlan[0].mac.hcf packetDropNotAddressedToUs:count 0
scalar BlockAckShowcase.host2.wlan[0].mac.hcf packetDropNotAddressedToUs:sum(packetBytes) 0
scalar BlockAckShowcase.host2.wlan[0].mac.hcf packetDropQueueOverflow:count 0
scalar BlockAckShowcase.host2.wlan[0].mac.hcf packetDropQueueOverflow:sum(packetBytes) 0
scalar BlockAckShowcase.host2.wlan[0].mac.hcf packetDropRetryLimitReached:count 0
scalar BlockAckShowcase.host2.wlan[0].mac.hcf packetDropRetryLimitReached:sum(packetBytes) 0
scalar BlockAckShowcase.host2.wlan[0].mac.hcf linkBroken:count 0
scalar BlockAckShowcase.host2.wlan[0].mac packetReceivedFromLower:count 919
scalar BlockAckShowcase.host2.wlan[0].mac packetReceivedFromLower:sum(packetBytes) 697285
scalar BlockAckShowcase.host2.wlan[0].mac packetSentToLower:count 191
scalar BlockAckShowcase.host2.wlan[0].mac packetSentToLower:sum(packetBytes) 21327
scalar BlockAckShowcase.host2.wlan[0].mac packetReceivedFromUpper:count 0
scalar BlockAckShowcase.host2.wlan[0].mac packetReceivedFromUpper:sum(packetBytes) 0
scalar BlockAckShowcase.host2.wlan[0].mac packetSentToUpper:count 518
scalar BlockAckShowcase.host2.wlan[0].mac packetSentToUpper:sum(packetBytes) 433248
scalar BlockAckShowcase.host2.wlan[0].mac packetDrop:count 221
scalar BlockAckShowcase.host2.wlan[0].mac packetDrop:sum(packetBytes) 209838
scalar BlockAckShowcase.host2.wlan[0].mac packetDropIncorrectlyReceived:count 220
scalar BlockAckShowcase.host2.wlan[0].mac packetDropIncorrectlyReceived:sum(packetBytes) 208072
scalar BlockAckShowcase.host2.wlan[0].mac packetDropNotAddressedToUs:count 0
scalar BlockAckShowcase.host2.wlan[0].mac packetDropNotAddressedToUs:sum(packetBytes) 0
scalar BlockAckShowcase.host2.wlan[0].mac packetDropQueueOverflow:count 0
scalar BlockAckShowcase.host2.wlan[0].mac packetDropQueueOverflow:sum(packetBytes) 0
scalar BlockAckShowcase.host2.wlan[0].mac packetDropRetryLimitReached:count 0
scalar BlockAckShowcase.host2.wlan[0].mac packetDropRetryLimitReached:sum(packetBytes) 0
scalar BlockAckShowcase.host2.wlan[0].mac packetDropDuplicateDetected:count 1
scalar BlockAckShowcase.host2.wlan[0].mac packetDropDuplicateDetected:sum(packetBytes) 1766
scalar BlockAckShowcase.host2.wlan[0].mac packetDropOther:count 0
scalar BlockAckShowcase.host2.wlan[0].mac packetDropOther:sum(packetBytes) 0
scalar BlockAckShowcase.host2.wlan[0].mac linkBroken:count 0
scalar BlockAckShowcase.host2.wlan[0].radio radioMode:count 385
scalar BlockAckShowcase.host2.wlan[0].radio receptionState:count 2221
scalar BlockAckShowcase.host2.wlan[0].radio transmissionState:count 764
scalar BlockAckShowcase.host2.wlan[0] packetDropInterfaceDown:count 0
scalar BlockAckShowcase.host2.wlan[0] packetDropInterfaceDown:sum(packetBytes) 0
scalar BlockAckShowcase.host2.wlan[0] packetDropNoCarrier:count 0
scalar BlockAckShowcase.host2.wlan[0] packetDropNoCarrier:sum(packetBytes) 0
scalar BlockAckShowcase.host2.ipv4.ip packetDropAddressResolutionFailed:count 0
scalar BlockAckShowcase.host2.ipv4.ip packetDropAddressResolutionFailed:sum(packetBytes) 0
scalar BlockAckShowcase.host2.ipv4.ip packetDropHopLimitReached:count 0
scalar BlockAckShowcase.host2.ipv4.ip packetDropHopLimitReached:sum(packetBytes) 0
scalar BlockAckShowcase.host2.ipv4.ip packetDropForwardingDisabled:count 0
scalar BlockAckShowcase.host2.ipv4.ip packetDropForwardingDisabled:sum(packetBytes) 0
scalar BlockAckShowcase.host2.ipv4.ip packetDropLifetimeExpired:count 0
scalar BlockAckShowcase.host2.ipv4.ip packetDropLifetimeExpired:sum(packetBytes) 0
scalar BlockAckShowcase.host2.ipv4.ip packetDropNoInterfaceFound:count 0
scalar BlockAckShowcase.host2.ipv4.ip packetDropNoInterfaceFound:sum(packetBytes) 0
scalar BlockAckShowcase.host2.ipv4.ip packetDropNoRouteFound:count 0
scalar BlockAckShowcase.host2.ipv4.ip packetDropNoRouteFound:sum(packetBytes) 0
scalar BlockAckShowcase.host2.ipv4.ip packetDropUndefined:count 0
scalar BlockAckShowcase.host2.ipv4.ip packetDropUndefined:sum(packetBytes) 0
scalar BlockAckShowcase.host2.udp packetReceived:count 518
scalar BlockAckShowcase.host2.udp packetReceived:sum(packetBytes) 418744
scalar BlockAckShowcase.host2.udp packetSent:count 0
scalar BlockAckShowcase.host2.udp packetSent:sum(packetBytes) 0
scalar BlockAckShowcase.host2.udp passedUpPk:count 518
scalar BlockAckShowcase.host2.udp droppedPkWrongPort:count 0
scalar BlockAckShowcase.host2.udp droppedPkBadChecksum:count 0
scalar BlockAckShowcase.host2.app[0] packetReceived:count 466
scalar BlockAckShowcase.host2.app[0] packetReceived:sum(packetBytes) 326200
scalar BlockAckShowcase.host2.app[1] packetReceived:count 52
scalar BlockAckShowcase.host2.app[1] packetReceived:sum(packetBytes) 88400
scalar BlockAckShowcase.host1.app[0] rcvdPkLifetime:stats:count 0
scalar BlockAckShowcase.host1.app[0] rcvdPkLifetime:stats:sumweights 0
scalar BlockAckShowcase.host1.app[0] rcvdPkLifetime:stats:mean -nan
scalar BlockAckShowcase.host1.app[0] rcvdPkLifetime:stats:stddev nan
scalar BlockAckShowcase.host1.app[0] rcvdPkLifetime:stats:min nan
scalar BlockAckShowcase.host1.app[0] rcvdPkLifetime:stats:max nan
scalar BlockAckShowcase.host1.app[0] rcvdPkLifetime:stats:numbins 0
scalar BlockAckShowcase.host1.app[1] rcvdPkLifetime:stats:count 0
scalar BlockAckShowcase.host1.app[1] rcvdPkLifetime:stats:sumweights 0
scalar BlockAckShowcase.host1.app[1] rcvdPkLifetime:stats:mean -nan
scalar BlockAckShowcase.host1.app[1] rcvdPkLifetime:stats:stddev nan
scalar BlockAckShowcase.host1.app[1] rcvdPkLifetime:stats:min nan
scalar BlockAckShowcase.host1.app[1] rcvdPkLifetime:stats:max nan
scalar BlockAckShowcase.host1.app[1] rcvdPkLifetime:stats:numbins 0
scalar BlockAckShowcase.host1.wlan[0].mac.dcf.channelAccess.pendingQueue queueingTime:histogram:count 0
scalar BlockAckShowcase.host1.wlan[0].mac.dcf.channelAccess.pendingQueue queueingTime:histogram:sumweights 0
scalar BlockAckShowcase.host1.wlan[0].mac.dcf.channelAccess.pendingQueue queueingTime:histogram:mean -nan
scalar BlockAckShowcase.host1.wlan[0].mac.dcf.channelAccess.pendingQueue queueingTime:histogram:stddev nan
scalar BlockAckShowcase.host1.wlan[0].mac.dcf.channelAccess.pendingQueue queueingTime:histogram:min nan
scalar BlockAckShowcase.host1.wlan[0].mac.dcf.channelAccess.pendingQueue queueingTime:histogram:max nan
scalar BlockAckShowcase.host1.wlan[0].mac.dcf.channelAccess.pendingQueue queueingTime:histogram:numbins 1
scalar BlockAckShowcase.host1.wlan[0].mac.dcf.channelAccess.pendingQueue queueingTime:histogram:rangemin 0
scalar BlockAckShowcase.host1.wlan[0].mac.dcf.channelAccess.pendingQueue queueingTime:histogram:rangemax 1
scalar BlockAckShowcase.host1.wlan[0].mac.dcf.channelAccess.pendingQueue queueingTime:histogram:underflows 0
scalar BlockAckShowcase.host1.wlan[0].mac.dcf.channelAccess.pendingQueue queueingTime:histogram:overflows 0
scalar BlockAckShowcase.host1.wlan[0].mac.dcf.channelAccess.pendingQueue outgoingPacketLengths:histogram:count 0
scalar BlockAckShowcase.host1.wlan[0].mac.dcf.channelAccess.pendingQueue outgoingPacketLengths:histogram:sumweights 0
scalar BlockAckShowcase.host1.wlan[0].mac.dcf.channelAccess.pendingQueue outgoingPacketLengths:histogram:mean -nan
scalar BlockAckShowcase.host1.wlan[0].mac.dcf.channelAccess.pendingQueue outgoingPacketLengths:histogram:stddev nan
scalar BlockAckShowcase.host1.wlan[0].mac.dcf.channelAccess.pendingQueue outgoingPacketLengths:histogram:min nan
scalar BlockAckShowcase.host1.wlan[0].mac.dcf.channelAccess.pendingQueue outgoingPacketLengths:histogram:max nan
scalar BlockAckShowcase.host1.wlan[0].mac.dcf.channelAccess.pendingQueue outgoingPacketLengths:histogram:numbins 1
scalar BlockAckShowcase.host1.wlan[0].mac.dcf.channelAccess.pendingQueue outgoingPacketLengths:histogram:rangemin 0
scalar BlockAckShowcase.host1.wlan[0].mac.dcf.channelAccess.pendingQueue outgoingPacketLengths:histogram:rangemax 1
scalar BlockAckShowcase.host1.wlan[0].mac.dcf.channelAccess.pendingQueue outgoingPacketLengths:histogram:underflows 0
scalar BlockAckShowcase.host1.wlan[0].mac.dcf.channelAccess.pendingQueue outgoingPacketLengths:histogram:overflows 0
scalar BlockAckShowcase.host1.wlan[0].mac.dcf.channelAccess.pendingQueue flowQueueingTime:histogram:count 0
scalar BlockAckShowcase.host1.wlan[0].mac.dcf.channelAccess.pendingQueue flowQueueingTime:histogram:sumweights 0
scalar BlockAckShowcase.host1.wlan[0].mac.dcf.channelAccess.pendingQueue flowQueueingTime:histogram:mean -nan
scalar BlockAckShowcase.host1.wlan[0].mac.dcf.channelAccess.pendingQueue flowQueueingTime:histogram:stddev nan
scalar BlockAckShowcase.host1.wlan[0].mac.dcf.channelAccess.pendingQueue flowQueueingTime:histogram:min nan
scalar BlockAckShowcase.host1.wlan[0].mac.dcf.channelAccess.pendingQueue flowQueueingTime:histogram:max nan
scalar BlockAckShowcase.host1.wlan[0].mac.dcf.channelAccess.pendingQueue flowQueueingTime:histogram:numbins 1
scalar BlockAckShowcase.host1.wlan[0].mac.dcf.channelAccess.pendingQueue flowQueueingTime:histogram:rangemin 0
scalar BlockAckShowcase.host1.wlan[0].mac.dcf.channelAccess.pendingQueue flowQueueingTime:histogram:rangemax 1
scalar BlockAckShowcase.host1.wlan[0].mac.dcf.channelAccess.pendingQueue flowQueueingTime:histogram:underflows 0
scalar BlockAckShowcase.host1.wlan[0].mac.dcf.channelAccess.pendingQueue flowQueueingTime:histogram:overflows 0
scalar BlockAckShowcase.host1.wlan[0].mac.dcf.channelAccess.pendingQueue incomingPacketLengths:histogram:count 0
scalar BlockAckShowcase.host1.wlan[0].mac.dcf.channelAccess.pendingQueue incomingPacketLengths:histogram:sumweights 0
scalar BlockAckShowcase.host1.wlan[0].mac.dcf.channelAccess.pendingQueue incomingPacketLengths:histogram:mean -nan
scalar BlockAckShowcase.host1.wlan[0].mac.dcf.channelAccess.pendingQueue incomingPacketLengths:histogram:stddev nan
scalar BlockAckShowcase.host1.wlan[0].mac.dcf.channelAccess.pendingQueue incomingPacketLengths:histogram:min nan
scalar BlockAckShowcase.host1.wlan[0].mac.dcf.channelAccess.pendingQueue incomingPacketLengths:histogram:max nan
scalar BlockAckShowcase.host1.wlan[0].mac.dcf.channelAccess.pendingQueue incomingPacketLengths:histogram:numbins 1
scalar BlockAckShowcase.host1.wlan[0].mac.dcf.channelAccess.pendingQueue incomingPacketLengths:histogram:rangemin 0
scalar BlockAckShowcase.host1.wlan[0].mac.dcf.channelAccess.pendingQueue incomingPacketLengths:histogram:rangemax 1
scalar BlockAckShowcase.host1.wlan[0].mac.dcf.channelAccess.pendingQueue incomingPacketLengths:histogram:underflows 0
scalar BlockAckShowcase.host1.wlan[0].mac.dcf.channelAccess.pendingQueue incomingPacketLengths:histogram:overflows 0
scalar BlockAckShowcase.host1.wlan[0].mac.dcf.channelAccess.inProgressFrames queueingTime:histogram:count 0
scalar BlockAckShowcase.host1.wlan[0].mac.dcf.channelAccess.inProgressFrames queueingTime:histogram:sumweights 0
scalar BlockAckShowcase.host1.wlan[0].mac.dcf.channelAccess.inProgressFrames queueingTime:histogram:mean -nan
scalar BlockAckShowcase.host1.wlan[0].mac.dcf.channelAccess.inProgressFrames queueingTime:histogram:stddev nan
scalar BlockAckShowcase.host1.wlan[0].mac.dcf.channelAccess.inProgressFrames queueingTime:histogram:min nan
scalar BlockAckShowcase.host1.wlan[0].mac.dcf.channelAccess.inProgressFrames queueingTime:histogram:max nan
scalar BlockAckShowcase.host1.wlan[0].mac.dcf.channelAccess.inProgressFrames queueingTime:histogram:numbins 1
scalar BlockAckShowcase.host1.wlan[0].mac.dcf.channelAccess.inProgressFrames queueingTime:histogram:rangemin 0
scalar BlockAckShowcase.host1.wlan[0].mac.dcf.channelAccess.inProgressFrames queueingTime:histogram:rangemax 1
scalar BlockAckShowcase.host1.wlan[0].mac.dcf.channelAccess.inProgressFrames queueingTime:histogram:underflows 0
scalar BlockAckShowcase.host1.wlan[0].mac.dcf.channelAccess.inProgressFrames queueingTime:histogram:overflows 0
scalar BlockAckShowcase.host1.wlan[0].mac.dcf frameSequenceDuration:histogram:count 0
scalar BlockAckShowcase.host1.wlan[0].mac.dcf frameSequenceDuration:histogram:sumweights 0
scalar BlockAckShowcase.host1.wlan[0].mac.dcf frameSequenceDuration:histogram:mean -nan
scalar BlockAckShowcase.host1.wlan[0].mac.dcf frameSequenceDuration:histogram:stddev nan
scalar BlockAckShowcase.host1.wlan[0].mac.dcf frameSequenceDuration:histogram:min nan
scalar BlockAckShowcase.host1.wlan[0].mac.dcf frameSequenceDuration:histogram:max nan
scalar BlockAckShowcase.host1.wlan[0].mac.dcf frameSequenceDuration:histogram:numbins 1
scalar BlockAckShowcase.host1.wlan[0].mac.dcf frameSequenceDuration:histogram:rangemin 0
scalar BlockAckShowcase.host1.wlan[0].mac.dcf frameSequenceDuration:histogram:rangemax 1
scalar BlockAckShowcase.host1.wlan[0].mac.dcf frameSequenceDuration:histogram:underflows 0
scalar BlockAckShowcase.host1.wlan[0].mac.dcf frameSequenceDuration:histogram:overflows 0
scalar BlockAckShowcase.host1.wlan[0].mac.dcf frameSequenceNumPackets:histogram:count 0
scalar BlockAckShowcase.host1.wlan[0].mac.dcf frameSequenceNumPackets:histogram:sumweights 0
scalar BlockAckShowcase.host1.wlan[0].mac.dcf frameSequenceNumPackets:histogram:mean -nan
scalar BlockAckShowcase.host1.wlan[0].mac.dcf frameSequenceNumPackets:histogram:stddev nan
scalar BlockAckShowcase.host1.wlan[0].mac.dcf frameSequenceNumPackets:histogram:min nan
scalar BlockAckShowcase.host1.wlan[0].mac.dcf frameSequenceNumPackets:histogram:max nan
scalar BlockAckShowcase.host1.wlan[0].mac.dcf frameSequenceNumPackets:histogram:numbins 1
scalar BlockAckShowcase.host1.wlan[0].mac.dcf frameSequenceNumPackets:histogram:rangemin 0
scalar BlockAckShowcase.host1.wlan[0].mac.dcf frameSequenceNumPackets:histogram:rangemax 1
scalar BlockAckShowcase.host1.wlan[0].mac.dcf frameSequenceNumPackets:histogram:underflows 0
scalar BlockAckShowcase.host1.wlan[0].mac.dcf frameSequenceNumPackets:histogram:overflows 0
scalar BlockAckShowcase.host1.wlan[0].mac.hcf.edca.edcaf[0].pendingQueue queueingTime:histogram:count 0
scalar BlockAckShowcase.host1.wlan[0].mac.hcf.edca.edcaf[0].pendingQueue queueingTime:histogram:sumweights 0
scalar BlockAckShowcase.host1.wlan[0].mac.hcf.edca.edcaf[0].pendingQueue queueingTime:histogram:mean -nan
scalar BlockAckShowcase.host1.wlan[0].mac.hcf.edca.edcaf[0].pendingQueue queueingTime:histogram:stddev nan
scalar BlockAckShowcase.host1.wlan[0].mac.hcf.edca.edcaf[0].pendingQueue queueingTime:histogram:min nan
scalar BlockAckShowcase.host1.wlan[0].mac.hcf.edca.edcaf[0].pendingQueue queueingTime:histogram:max nan
scalar BlockAckShowcase.host1.wlan[0].mac.hcf.edca.edcaf[0].pendingQueue queueingTime:histogram:numbins 1
scalar BlockAckShowcase.host1.wlan[0].mac.hcf.edca.edcaf[0].pendingQueue queueingTime:histogram:rangemin 0
scalar BlockAckShowcase.host1.wlan[0].mac.hcf.edca.edcaf[0].pendingQueue queueingTime:histogram:rangemax 1
scalar BlockAckShowcase.host1.wlan[0].mac.hcf.edca.edcaf[0].pendingQueue queueingTime:histogram:underflows 0
scalar BlockAckShowcase.host1.wlan[0].mac.hcf.edca.edcaf[0].pendingQueue queueingTime:histogram:overflows 0
scalar BlockAckShowcase.host1.wlan[0].mac.hcf.edca.edcaf[0].pendingQueue outgoingPacketLengths:histogram:count 0
scalar BlockAckShowcase.host1.wlan[0].mac.hcf.edca.edcaf[0].pendingQueue outgoingPacketLengths:histogram:sumweights 0
scalar BlockAckShowcase.host1.wlan[0].mac.hcf.edca.edcaf[0].pendingQueue outgoingPacketLengths:histogram:mean -nan
scalar BlockAckShowcase.host1.wlan[0].mac.hcf.edca.edcaf[0].pendingQueue outgoingPacketLengths:histogram:stddev nan
scalar BlockAckShowcase.host1.wlan[0].mac.hcf.edca.edcaf[0].pendingQueue outgoingPacketLengths:histogram:min nan
scalar BlockAckShowcase.host1.wlan[0].mac.hcf.edca.edcaf[0].pendingQueue outgoingPacketLengths:histogram:max nan
scalar BlockAckShowcase.host1.wlan[0].mac.hcf.edca.edcaf[0].pendingQueue outgoingPacketLengths:histogram:numbins 1
scalar BlockAckShowcase.host1.wlan[0].mac.hcf.edca.edcaf[0].pendingQueue outgoingPacketLengths:histogram:rangemin 0
scalar BlockAckShowcase.host1.wlan[0].mac.hcf.edca.edcaf[0].pendingQueue outgoingPacketLengths:histogram:rangemax 1
scalar BlockAckShowcase.host1.wlan[0].mac.hcf.edca.edcaf[0].pendingQueue outgoingPacketLengths:histogram:underflows 0
scalar BlockAckShowcase.host1.wlan[0].mac.hcf.edca.edcaf[0].pendingQueue outgoingPacketLengths:histogram:overflows 0
scalar BlockAckShowcase.host1.wlan[0].mac.hcf.edca.edcaf[0].pendingQueue flowQueueingTime:histogram:count 0
scalar BlockAckShowcase.host1.wlan[0].mac.hcf.edca.edcaf[0].pendingQueue flowQueueingTime:histogram:sumweights 0
scalar BlockAckShowcase.host1.wlan[0].mac.hcf.edca.edcaf[0].pendingQueue flowQueueingTime:histogram:mean -nan
scalar BlockAckShowcase.host1.wlan[0].mac.hcf.edca.edcaf[0].pendingQueue flowQueueingTime:histogram:stddev nan
scalar BlockAckShowcase.host1.wlan[0].mac.hcf.edca.edcaf[0].pendingQueue flowQueueingTime:histogram:min nan
scalar BlockAckShowcase.host1.wlan[0].mac.hcf.edca.edcaf[0].pendingQueue flowQueueingTime:histogram:max nan
scalar BlockAckShowcase.host1.wlan[0].mac.hcf.edca.edcaf[0].pendingQueue flowQueueingTime:histogram:numbins 1
scalar BlockAckShowcase.host1.wlan[0].mac.hcf.edca.edcaf[0].pendingQueue flowQueueingTime:histogram:rangemin 0
scalar BlockAckShowcase.host1.wlan[0].mac.hcf.edca.edcaf[0].pendingQueue flowQueueingTime:histogram:rangemax 1
scalar BlockAckShowcase.host1.wlan[0].mac.hcf.edca.edcaf[0].pendingQueue flowQueueingTime:histogram:underflows 0
scalar BlockAckShowcase.host1.wlan[0].mac.hcf.edca.edcaf[0].pendingQueue flowQueueingTime:histogram:overflows 0
scalar BlockAckShowcase.host1.wlan[0].mac.hcf.edca.edcaf[0].pendingQueue incomingPacketLengths:histogram:count 0
scalar BlockAckShowcase.host1.wlan[0].mac.hcf.edca.edcaf[0].pendingQueue incomingPacketLengths:histogram:sumweights 0
scalar BlockAckShowcase.host1.wlan[0].mac.hcf.edca.edcaf[0].pendingQueue incomingPacketLengths:histogram:mean -nan
scalar BlockAckShowcase.host1.wlan[0].mac.hcf.edca.edcaf[0].pendingQueue incomingPacketLengths:histogram:stddev nan
scalar BlockAckShowcase.host1.wlan[0].mac.hcf.edca.edcaf[0].pendingQueue incomingPacketLengths:histogram:min nan
scalar BlockAckShowcase.host1.wlan[0].mac.hcf.edca.edcaf[0].pendingQueue incomingPacketLengths:histogram:max nan
scalar BlockAckShowcase.host1.wlan[0].mac.hcf.edca.edcaf[0].pendingQueue incomingPacketLengths:histogram:numbins 1
scalar BlockAckShowcase.host1.wlan[0].mac.hcf.edca.edcaf[0].pendingQueue incomingPacketLengths:histogram:rangemin 0
scalar BlockAckShowcase.host1.wlan[0].mac.hcf.edca.edcaf[0].pendingQueue incomingPacketLengths:histogram:rangemax 1
scalar BlockAckShowcase.host1.wlan[0].mac.hcf.edca.edcaf[0].pendingQueue incomingPacketLengths:histogram:underflows 0
scalar BlockAckShowcase.host1.wlan[0].mac.hcf.edca.edcaf[0].pendingQueue incomingPacketLengths:histogram:overflows 0
scalar BlockAckShowcase.host1.wlan[0].mac.hcf.edca.edcaf[0].inProgressFrames queueingTime:histogram:count 0
scalar BlockAckShowcase.host1.wlan[0].mac.hcf.edca.edcaf[0].inProgressFrames queueingTime:histogram:sumweights 0
scalar BlockAckShowcase.host1.wlan[0].mac.hcf.edca.edcaf[0].inProgressFrames queueingTime:histogram:mean -nan
scalar BlockAckShowcase.host1.wlan[0].mac.hcf.edca.edcaf[0].inProgressFrames queueingTime:histogram:stddev nan
scalar BlockAckShowcase.host1.wlan[0].mac.hcf.edca.edcaf[0].inProgressFrames queueingTime:histogram:min nan
scalar BlockAckShowcase.host1.wlan[0].mac.hcf.edca.edcaf[0].inProgressFrames queueingTime:histogram:max nan
scalar BlockAckShowcase.host1.wlan[0].mac.hcf.edca.edcaf[0].inProgressFrames queueingTime:histogram:numbins 1
scalar BlockAckShowcase.host1.wlan[0].mac.hcf.edca.edcaf[0].inProgressFrames queueingTime:histogram:rangemin 0
scalar BlockAckShowcase.host1.wlan[0].mac.hcf.edca.edcaf[0].inProgressFrames queueingTime:histogram:rangemax 1
scalar BlockAckShowcase.host1.wlan[0].mac.hcf.edca.edcaf[0].inProgressFrames queueingTime:histogram:underflows 0
scalar BlockAckShowcase.host1.wlan[0].mac.hcf.edca.edcaf[0].inProgressFrames queueingTime:histogram:overflows 0
scalar BlockAckShowcase.host1.wlan[0].mac.hcf.edca.edcaf[0].txopProcedure txopDuration:histogram:count 0
scalar BlockAckShowcase.host1.wlan[0].mac.hcf.edca.edcaf[0].txopProcedure txopDuration:histogram:sumweights 0
scalar BlockAckShowcase.host1.wlan[0].mac.hcf.edca.edcaf[0].txopProcedure txopDuration:histogram:mean -nan
scalar BlockAckShowcase.host1.wlan[0].mac.hcf.edca.edcaf[0].txopProcedure txopDuration:histogram:stddev nan
scalar BlockAckShowcase.host1.wlan[0].mac.hcf.edca.edcaf[0].txopProcedure txopDuration:histogram:min nan
scalar BlockAckShowcase.host1.wlan[0].mac.hcf.edca.edcaf[0].txopProcedure txopDuration:histogram:max nan
scalar BlockAckShowcase.host1.wlan[0].mac.hcf.edca.edcaf[0].txopProcedure txopDuration:histogram:numbins 1
scalar BlockAckShowcase.host1.wlan[0].mac.hcf.edca.edcaf[0].txopProcedure txopDuration:histogram:rangemin 0
scalar BlockAckShowcase.host1.wlan[0].mac.hcf.edca.edcaf[0].txopProcedure txopDuration:histogram:rangemax 1
scalar BlockAckShowcase.host1.wlan[0].mac.hcf.edca.edcaf[0].txopProcedure txopDuration:histogram:underflows 0
scalar BlockAckShowcase.host1.wlan[0].mac.hcf.edca.edcaf[0].txopProcedure txopDuration:histogram:overflows 0
scalar BlockAckShowcase.host1.wlan[0].mac.hcf.edca.edcaf[1].pendingQueue queueingTime:histogram:count 534
scalar BlockAckShowcase.host1.wlan[0].mac.hcf.edca.edcaf[1].pendingQueue queueingTime:histogram:sumweights 534
scalar BlockAckShowcase.host1.wlan[0].mac.hcf.edca.edcaf[1].pendingQueue queueingTime:histogram:mean 0.16990773470993
scalar BlockAckShowcase.host1.wlan[0].mac.hcf.edca.edcaf[1].pendingQueue queueingTime:histogram:stddev 0.05669695465256
scalar BlockAckShowcase.host1.wlan[0].mac.hcf.edca.edcaf[1].pendingQueue queueingTime:histogram:min 0.00015
scalar BlockAckShowcase.host1.wlan[0].mac.hcf.edca.edcaf[1].pendingQueue queueingTime:histogram:max 0.28679902438
scalar BlockAckShowcase.host1.wlan[0].mac.hcf.edca.edcaf[1].pendingQueue queueingTime:histogram:numbins 72
scalar BlockAckShowcase.host1.wlan[0].mac.hcf.edca.edcaf[1].pendingQueue queueingTime:histogram:rangemin 0
scalar BlockAckShowcase.host1.wlan[0].mac.hcf.edca.edcaf[1].pendingQueue queueingTime:histogram:rangemax 0.36
scalar BlockAckShowcase.host1.wlan[0].mac.hcf.edca.edcaf[1].pendingQueue queueingTime:histogram:underflows 0
scalar BlockAckShowcase.host1.wlan[0].mac.hcf.edca.edcaf[1].pendingQueue queueingTime:histogram:overflows 0
scalar BlockAckShowcase.host1.wlan[0].mac.hcf.edca.edcaf[1].pendingQueue outgoingPacketLengths:histogram:count 534
scalar BlockAckShowcase.host1.wlan[0].mac.hcf.edca.edcaf[1].pendingQueue outgoingPacketLengths:histogram:sumweights 534
scalar BlockAckShowcase.host1.wlan[0].mac.hcf.edca.edcaf[1].pendingQueue outgoingPacketLengths:histogram:mean 6907.0262172285
scalar BlockAckShowcase.host1.wlan[0].mac.hcf.edca.edcaf[1].pendingQueue outgoingPacketLengths:histogram:stddev 2374.0012588028
scalar BlockAckShowcase.host1.wlan[0].mac.hcf.edca.edcaf[1].pendingQueue outgoingPacketLengths:histogram:min 6128
scalar BlockAckShowcase.host1.wlan[0].mac.hcf.edca.edcaf[1].pendingQueue outgoingPacketLengths:histogram:max 14128
scalar BlockAckShowcase.host1.wlan[0].mac.hcf.edca.edcaf[1].pendingQueue outgoingPacketLengths:histogram:numbins 61
scalar BlockAckShowcase.host1.wlan[0].mac.hcf.edca.edcaf[1].pendingQueue outgoingPacketLengths:histogram:rangemin 4000
scalar BlockAckShowcase.host1.wlan[0].mac.hcf.edca.edcaf[1].pendingQueue outgoingPacketLengths:histogram:rangemax 16200
scalar BlockAckShowcase.host1.wlan[0].mac.hcf.edca.edcaf[1].pendingQueue outgoingPacketLengths:histogram:underflows 0
scalar BlockAckShowcase.host1.wlan[0].mac.hcf.edca.edcaf[1].pendingQueue outgoingPacketLengths:histogram:overflows 0
scalar BlockAckShowcase.host1.wlan[0].mac.hcf.edca.edcaf[1].pendingQueue flowQueueingTime:histogram:count 0
scalar BlockAckShowcase.host1.wlan[0].mac.hcf.edca.edcaf[1].pendingQueue flowQueueingTime:histogram:sumweights 0
scalar BlockAckShowcase.host1.wlan[0].mac.hcf.edca.edcaf[1].pendingQueue flowQueueingTime:histogram:mean -nan
scalar BlockAckShowcase.host1.wlan[0].mac.hcf.edca.edcaf[1].pendingQueue flowQueueingTime:histogram:stddev nan
scalar BlockAckShowcase.host1.wlan[0].mac.hcf.edca.edcaf[1].pendingQueue flowQueueingTime:histogram:min nan
scalar BlockAckShowcase.host1.wlan[0].mac.hcf.edca.edcaf[1].pendingQueue flowQueueingTime:histogram:max nan
scalar BlockAckShowcase.host1.wlan[0].mac.hcf.edca.edcaf[1].pendingQueue flowQueueingTime:histogram:numbins 1
scalar BlockAckShowcase.host1.wlan[0].mac.hcf.edca.edcaf[1].pendingQueue flowQueueingTime:histogram:rangemin 0
scalar BlockAckShowcase.host1.wlan[0].mac.hcf.edca.edcaf[1].pendingQueue flowQueueingTime:histogram:rangemax 1
scalar BlockAckShowcase.host1.wlan[0].mac.hcf.edca.edcaf[1].pendingQueue flowQueueingTime:histogram:underflows 0
scalar BlockAckShowcase.host1.wlan[0].mac.hcf.edca.edcaf[1].pendingQueue flowQueueingTime:histogram:overflows 0
scalar BlockAckShowcase.host1.wlan[0].mac.hcf.edca.edcaf[1].pendingQueue incomingPacketLengths:histogram:count 20000
scalar BlockAckShowcase.host1.wlan[0].mac.hcf.edca.edcaf[1].pendingQueue incomingPacketLengths:histogram:sumweights 20000
scalar BlockAckShowcase.host1.wlan[0].mac.hcf.edca.edcaf[1].pendingQueue incomingPacketLengths:histogram:mean 10128
scalar BlockAckShowcase.host1.wlan[0].mac.hcf.edca.edcaf[1].pendingQueue incomingPacketLengths:histogram:stddev 4000.1000037502
scalar BlockAckShowcase.host1.wlan[0].mac.hcf.edca.edcaf[1].pendingQueue incomingPacketLengths:histogram:min 6128
scalar BlockAckShowcase.host1.wlan[0].mac.hcf.edca.edcaf[1].pendingQueue incomingPacketLengths:histogram:max 14128
scalar BlockAckShowcase.host1.wlan[0].mac.hcf.edca.edcaf[1].pendingQueue incomingPacketLengths:histogram:numbins 61
scalar BlockAckShowcase.host1.wlan[0].mac.hcf.edca.edcaf[1].pendingQueue incomingPacketLengths:histogram:rangemin 4000
scalar BlockAckShowcase.host1.wlan[0].mac.hcf.edca.edcaf[1].pendingQueue incomingPacketLengths:histogram:rangemax 16200
scalar BlockAckShowcase.host1.wlan[0].mac.hcf.edca.edcaf[1].pendingQueue incomingPacketLengths:histogram:underflows 0
scalar BlockAckShowcase.host1.wlan[0].mac.hcf.edca.edcaf[1].pendingQueue incomingPacketLengths:histogram:overflows 0
scalar BlockAckShowcase.host1.wlan[0].mac.hcf.edca.edcaf[1].inProgressFrames queueingTime:histogram:count 532
scalar BlockAckShowcase.host1.wlan[0].mac.hcf.edca.edcaf[1].inProgressFrames queueingTime:histogram:sumweights 532
scalar BlockAckShowcase.host1.wlan[0].mac.hcf.edca.edcaf[1].inProgressFrames queueingTime:histogram:mean 0.0083271149881579
scalar BlockAckShowcase.host1.wlan[0].mac.hcf.edca.edcaf[1].inProgressFrames queueingTime:histogram:stddev 0.0069465837859564
scalar BlockAckShowcase.host1.wlan[0].mac.hcf.edca.edcaf[1].inProgressFrames queueingTime:histogram:min 0.00033161726
scalar BlockAckShowcase.host1.wlan[0].mac.hcf.edca.edcaf[1].inProgressFrames queueingTime:histogram:max 0.05393323452
scalar BlockAckShowcase.host1.wlan[0].mac.hcf.edca.edcaf[1].inProgressFrames queueingTime:histogram:numbins 68
scalar BlockAckShowcase.host1.wlan[0].mac.hcf.edca.edcaf[1].inProgressFrames queueingTime:histogram:rangemin 0
scalar BlockAckShowcase.host1.wlan[0].mac.hcf.edca.edcaf[1].inProgressFrames queueingTime:histogram:rangemax 0.068
scalar BlockAckShowcase.host1.wlan[0].mac.hcf.edca.edcaf[1].inProgressFrames queueingTime:histogram:underflows 0
scalar BlockAckShowcase.host1.wlan[0].mac.hcf.edca.edcaf[1].inProgressFrames queueingTime:histogram:overflows 0
scalar BlockAckShowcase.host1.wlan[0].mac.hcf.edca.edcaf[1].txopProcedure txopDuration:histogram:count 917
scalar BlockAckShowcase.host1.wlan[0].mac.hcf.edca.edcaf[1].txopProcedure txopDuration:histogram:sumweights 917
scalar BlockAckShowcase.host1.wlan[0].mac.hcf.edca.edcaf[1].txopProcedure txopDuration:histogram:mean 0.000302048031494
scalar BlockAckShowcase.host1.wlan[0].mac.hcf.edca.edcaf[1].txopProcedure txopDuration:histogram:stddev 0.00013526692369095
scalar BlockAckShowcase.host1.wlan[0].mac.hcf.edca.edcaf[1].txopProcedure txopDuration:histogram:min 9.7e-05
scalar BlockAckShowcase.host1.wlan[0].mac.hcf.edca.edcaf[1].txopProcedure txopDuration:histogram:max 0.000673
scalar BlockAckShowcase.host1.wlan[0].mac.hcf.edca.edcaf[1].txopProcedure txopDuration:histogram:numbins 81
scalar BlockAckShowcase.host1.wlan[0].mac.hcf.edca.edcaf[1].txopProcedure txopDuration:histogram:rangemin 0
scalar BlockAckShowcase.host1.wlan[0].mac.hcf.edca.edcaf[1].txopProcedure txopDuration:histogram:rangemax 0.00081
scalar BlockAckShowcase.host1.wlan[0].mac.hcf.edca.edcaf[1].txopProcedure txopDuration:histogram:underflows 0
scalar BlockAckShowcase.host1.wlan[0].mac.hcf.edca.edcaf[1].txopProcedure txopDuration:histogram:overflows 0
scalar BlockAckShowcase.host1.wlan[0].mac.hcf.edca.edcaf[2].pendingQueue queueingTime:histogram:count 0
scalar BlockAckShowcase.host1.wlan[0].mac.hcf.edca.edcaf[2].pendingQueue queueingTime:histogram:sumweights 0
scalar BlockAckShowcase.host1.wlan[0].mac.hcf.edca.edcaf[2].pendingQueue queueingTime:histogram:mean -nan
[...]
scalar BlockAckShowcase.host2.wlan[0].mac packetDropOther:vector(packetBytes):sum 0
scalar BlockAckShowcase.host2.wlan[0].mac packetDropOther:vector(packetBytes):sumweights 0
scalar BlockAckShowcase.host2.wlan[0].mac packetDropOther:vector(packetBytes):mean -nan
scalar BlockAckShowcase.host2.wlan[0].mac packetDropOther:vector(packetBytes):stddev nan
scalar BlockAckShowcase.host2.wlan[0].mac packetDropOther:vector(packetBytes):min inf
scalar BlockAckShowcase.host2.wlan[0].mac packetDropOther:vector(packetBytes):max -inf
scalar BlockAckShowcase.host2.wlan[0].mac packetDropOther:vector(packetBytes):starttime nan
scalar BlockAckShowcase.host2.wlan[0].mac packetDropOther:vector(packetBytes):endtime nan
scalar BlockAckShowcase.host2.wlan[0].radio radioMode:vector:count 385
scalar BlockAckShowcase.host2.wlan[0].radio radioMode:vector:sum 957
scalar BlockAckShowcase.host2.wlan[0].radio radioMode:vector:sumweights 385
scalar BlockAckShowcase.host2.wlan[0].radio radioMode:vector:mean 2.4857142857143
scalar BlockAckShowcase.host2.wlan[0].radio radioMode:vector:stddev 0.53075081589332
scalar BlockAckShowcase.host2.wlan[0].radio radioMode:vector:min 0
scalar BlockAckShowcase.host2.wlan[0].radio radioMode:vector:max 3
scalar BlockAckShowcase.host2.wlan[0].radio radioMode:vector:starttime 0
scalar BlockAckShowcase.host2.wlan[0].radio radioMode:vector:endtime 0.99971513873
scalar BlockAckShowcase.host2.wlan[0].radio receptionState:vector:count 2221
scalar BlockAckShowcase.host2.wlan[0].radio receptionState:vector:sum 3868
scalar BlockAckShowcase.host2.wlan[0].radio receptionState:vector:sumweights 2221
scalar BlockAckShowcase.host2.wlan[0].radio receptionState:vector:mean 1.7415578568213
scalar BlockAckShowcase.host2.wlan[0].radio receptionState:vector:stddev 1.0916666755688
scalar BlockAckShowcase.host2.wlan[0].radio receptionState:vector:min 0
scalar BlockAckShowcase.host2.wlan[0].radio receptionState:vector:max 3
scalar BlockAckShowcase.host2.wlan[0].radio receptionState:vector:starttime 0
scalar BlockAckShowcase.host2.wlan[0].radio receptionState:vector:endtime 0.99971513873
scalar BlockAckShowcase.host2.wlan[0].radio transmissionState:vector:count 764
scalar BlockAckShowcase.host2.wlan[0].radio transmissionState:vector:sum 764
scalar BlockAckShowcase.host2.wlan[0].radio transmissionState:vector:sumweights 764
scalar BlockAckShowcase.host2.wlan[0].radio transmissionState:vector:mean 1
scalar BlockAckShowcase.host2.wlan[0].radio transmissionState:vector:stddev 0.70757000218689
scalar BlockAckShowcase.host2.wlan[0].radio transmissionState:vector:min 0
scalar BlockAckShowcase.host2.wlan[0].radio transmissionState:vector:max 2
scalar BlockAckShowcase.host2.wlan[0].radio transmissionState:vector:starttime 0.00054680863
scalar BlockAckShowcase.host2.wlan[0].radio transmissionState:vector:endtime 0.99971513873
scalar BlockAckShowcase.host2.wlan[0].radio radioChannel:vector:count 1
scalar BlockAckShowcase.host2.wlan[0].radio radioChannel:vector:sum 0
scalar BlockAckShowcase.host2.wlan[0].radio radioChannel:vector:sumweights 1
scalar BlockAckShowcase.host2.wlan[0].radio radioChannel:vector:mean 0
scalar BlockAckShowcase.host2.wlan[0].radio radioChannel:vector:stddev nan
scalar BlockAckShowcase.host2.wlan[0].radio radioChannel:vector:min 0
scalar BlockAckShowcase.host2.wlan[0].radio radioChannel:vector:max 0
scalar BlockAckShowcase.host2.wlan[0].radio radioChannel:vector:starttime 0
scalar BlockAckShowcase.host2.wlan[0].radio radioChannel:vector:endtime 0
scalar BlockAckShowcase.host2.wlan[0] packetDropInterfaceDown:vector(packetBytes):count 0
scalar BlockAckShowcase.host2.wlan[0] packetDropInterfaceDown:vector(packetBytes):sum 0
scalar BlockAckShowcase.host2.wlan[0] packetDropInterfaceDown:vector(packetBytes):sumweights 0
scalar BlockAckShowcase.host2.wlan[0] packetDropInterfaceDown:vector(packetBytes):mean -nan
scalar BlockAckShowcase.host2.wlan[0] packetDropInterfaceDown:vector(packetBytes):stddev nan
scalar BlockAckShowcase.host2.wlan[0] packetDropInterfaceDown:vector(packetBytes):min inf
scalar BlockAckShowcase.host2.wlan[0] packetDropInterfaceDown:vector(packetBytes):max -inf
scalar BlockAckShowcase.host2.wlan[0] packetDropInterfaceDown:vector(packetBytes):starttime nan
scalar BlockAckShowcase.host2.wlan[0] packetDropInterfaceDown:vector(packetBytes):endtime nan
scalar BlockAckShowcase.host2.wlan[0] packetDropNoCarrier:vector(packetBytes):count 0
scalar BlockAckShowcase.host2.wlan[0] packetDropNoCarrier:vector(packetBytes):sum 0
scalar BlockAckShowcase.host2.wlan[0] packetDropNoCarrier:vector(packetBytes):sumweights 0
scalar BlockAckShowcase.host2.wlan[0] packetDropNoCarrier:vector(packetBytes):mean -nan
scalar BlockAckShowcase.host2.wlan[0] packetDropNoCarrier:vector(packetBytes):stddev nan
scalar BlockAckShowcase.host2.wlan[0] packetDropNoCarrier:vector(packetBytes):min inf
scalar BlockAckShowcase.host2.wlan[0] packetDropNoCarrier:vector(packetBytes):max -inf
scalar BlockAckShowcase.host2.wlan[0] packetDropNoCarrier:vector(packetBytes):starttime nan
scalar BlockAckShowcase.host2.wlan[0] packetDropNoCarrier:vector(packetBytes):endtime nan
scalar BlockAckShowcase.host2.ipv4.ip packetDropAddressResolutionFailed:vector(packetBytes):count 0
scalar BlockAckShowcase.host2.ipv4.ip packetDropAddressResolutionFailed:vector(packetBytes):sum 0
scalar BlockAckShowcase.host2.ipv4.ip packetDropAddressResolutionFailed:vector(packetBytes):sumweights 0
scalar BlockAckShowcase.host2.ipv4.ip packetDropAddressResolutionFailed:vector(packetBytes):mean -nan
scalar BlockAckShowcase.host2.ipv4.ip packetDropAddressResolutionFailed:vector(packetBytes):stddev nan
scalar BlockAckShowcase.host2.ipv4.ip packetDropAddressResolutionFailed:vector(packetBytes):min inf
scalar BlockAckShowcase.host2.ipv4.ip packetDropAddressResolutionFailed:vector(packetBytes):max -inf
scalar BlockAckShowcase.host2.ipv4.ip packetDropAddressResolutionFailed:vector(packetBytes):starttime nan
scalar BlockAckShowcase.host2.ipv4.ip packetDropAddressResolutionFailed:vector(packetBytes):endtime nan
scalar BlockAckShowcase.host2.ipv4.ip packetDropHopLimitReached:vector(packetBytes):count 0
scalar BlockAckShowcase.host2.ipv4.ip packetDropHopLimitReached:vector(packetBytes):sum 0
scalar BlockAckShowcase.host2.ipv4.ip packetDropHopLimitReached:vector(packetBytes):sumweights 0
scalar BlockAckShowcase.host2.ipv4.ip packetDropHopLimitReached:vector(packetBytes):mean -nan
scalar BlockAckShowcase.host2.ipv4.ip packetDropHopLimitReached:vector(packetBytes):stddev nan
scalar BlockAckShowcase.host2.ipv4.ip packetDropHopLimitReached:vector(packetBytes):min inf
scalar BlockAckShowcase.host2.ipv4.ip packetDropHopLimitReached:vector(packetBytes):max -inf
scalar BlockAckShowcase.host2.ipv4.ip packetDropHopLimitReached:vector(packetBytes):starttime nan
scalar BlockAckShowcase.host2.ipv4.ip packetDropHopLimitReached:vector(packetBytes):endtime nan
scalar BlockAckShowcase.host2.ipv4.ip packetDropForwardingDisabled:vector(packetBytes):count 0
scalar BlockAckShowcase.host2.ipv4.ip packetDropForwardingDisabled:vector(packetBytes):sum 0
scalar BlockAckShowcase.host2.ipv4.ip packetDropForwardingDisabled:vector(packetBytes):sumweights 0
scalar BlockAckShowcase.host2.ipv4.ip packetDropForwardingDisabled:vector(packetBytes):mean -nan
scalar BlockAckShowcase.host2.ipv4.ip packetDropForwardingDisabled:vector(packetBytes):stddev nan
scalar BlockAckShowcase.host2.ipv4.ip packetDropForwardingDisabled:vector(packetBytes):min inf
scalar BlockAckShowcase.host2.ipv4.ip packetDropForwardingDisabled:vector(packetBytes):max -inf
scalar BlockAckShowcase.host2.ipv4.ip packetDropForwardingDisabled:vector(packetBytes):starttime nan
scalar BlockAckShowcase.host2.ipv4.ip packetDropForwardingDisabled:vector(packetBytes):endtime nan
scalar BlockAckShowcase.host2.ipv4.ip packetDropLifetimeExpired:vector(packetBytes):count 0
scalar BlockAckShowcase.host2.ipv4.ip packetDropLifetimeExpired:vector(packetBytes):sum 0
scalar BlockAckShowcase.host2.ipv4.ip packetDropLifetimeExpired:vector(packetBytes):sumweights 0
scalar BlockAckShowcase.host2.ipv4.ip packetDropLifetimeExpired:vector(packetBytes):mean -nan
scalar BlockAckShowcase.host2.ipv4.ip packetDropLifetimeExpired:vector(packetBytes):stddev nan
scalar BlockAckShowcase.host2.ipv4.ip packetDropLifetimeExpired:vector(packetBytes):min inf
scalar BlockAckShowcase.host2.ipv4.ip packetDropLifetimeExpired:vector(packetBytes):max -inf
scalar BlockAckShowcase.host2.ipv4.ip packetDropLifetimeExpired:vector(packetBytes):starttime nan
scalar BlockAckShowcase.host2.ipv4.ip packetDropLifetimeExpired:vector(packetBytes):endtime nan
scalar BlockAckShowcase.host2.ipv4.ip packetDropNoInterfaceFound:vector(packetBytes):count 0
scalar BlockAckShowcase.host2.ipv4.ip packetDropNoInterfaceFound:vector(packetBytes):sum 0
scalar BlockAckShowcase.host2.ipv4.ip packetDropNoInterfaceFound:vector(packetBytes):sumweights 0
scalar BlockAckShowcase.host2.ipv4.ip packetDropNoInterfaceFound:vector(packetBytes):mean -nan
scalar BlockAckShowcase.host2.ipv4.ip packetDropNoInterfaceFound:vector(packetBytes):stddev nan
scalar BlockAckShowcase.host2.ipv4.ip packetDropNoInterfaceFound:vector(packetBytes):min inf
scalar BlockAckShowcase.host2.ipv4.ip packetDropNoInterfaceFound:vector(packetBytes):max -inf
scalar BlockAckShowcase.host2.ipv4.ip packetDropNoInterfaceFound:vector(packetBytes):starttime nan
scalar BlockAckShowcase.host2.ipv4.ip packetDropNoInterfaceFound:vector(packetBytes):endtime nan
scalar BlockAckShowcase.host2.ipv4.ip packetDropNoRouteFound:vector(packetBytes):count 0
scalar BlockAckShowcase.host2.ipv4.ip packetDropNoRouteFound:vector(packetBytes):sum 0
scalar BlockAckShowcase.host2.ipv4.ip packetDropNoRouteFound:vector(packetBytes):sumweights 0
scalar BlockAckShowcase.host2.ipv4.ip packetDropNoRouteFound:vector(packetBytes):mean -nan
scalar BlockAckShowcase.host2.ipv4.ip packetDropNoRouteFound:vector(packetBytes):stddev nan
scalar BlockAckShowcase.host2.ipv4.ip packetDropNoRouteFound:vector(packetBytes):min inf
scalar BlockAckShowcase.host2.ipv4.ip packetDropNoRouteFound:vector(packetBytes):max -inf
scalar BlockAckShowcase.host2.ipv4.ip packetDropNoRouteFound:vector(packetBytes):starttime nan
scalar BlockAckShowcase.host2.ipv4.ip packetDropNoRouteFound:vector(packetBytes):endtime nan
scalar BlockAckShowcase.host2.ipv4.ip packetDropUndefined:vector(packetBytes):count 0
scalar BlockAckShowcase.host2.ipv4.ip packetDropUndefined:vector(packetBytes):sum 0
scalar BlockAckShowcase.host2.ipv4.ip packetDropUndefined:vector(packetBytes):sumweights 0
scalar BlockAckShowcase.host2.ipv4.ip packetDropUndefined:vector(packetBytes):mean -nan
scalar BlockAckShowcase.host2.ipv4.ip packetDropUndefined:vector(packetBytes):stddev nan
scalar BlockAckShowcase.host2.ipv4.ip packetDropUndefined:vector(packetBytes):min inf
scalar BlockAckShowcase.host2.ipv4.ip packetDropUndefined:vector(packetBytes):max -inf
scalar BlockAckShowcase.host2.ipv4.ip packetDropUndefined:vector(packetBytes):starttime nan
scalar BlockAckShowcase.host2.ipv4.ip packetDropUndefined:vector(packetBytes):endtime nan
scalar BlockAckShowcase.host2.udp packetSent:vector(packetBytes):count 0
scalar BlockAckShowcase.host2.udp packetSent:vector(packetBytes):sum 0
scalar BlockAckShowcase.host2.udp packetSent:vector(packetBytes):sumweights 0
scalar BlockAckShowcase.host2.udp packetSent:vector(packetBytes):mean -nan
scalar BlockAckShowcase.host2.udp packetSent:vector(packetBytes):stddev nan
scalar BlockAckShowcase.host2.udp packetSent:vector(packetBytes):min inf
scalar BlockAckShowcase.host2.udp packetSent:vector(packetBytes):max -inf
scalar BlockAckShowcase.host2.udp packetSent:vector(packetBytes):starttime nan
scalar BlockAckShowcase.host2.udp packetSent:vector(packetBytes):endtime nan
scalar BlockAckShowcase.host2.udp packetReceived:vector(packetBytes):count 518
scalar BlockAckShowcase.host2.udp packetReceived:vector(packetBytes):sum 418744
scalar BlockAckShowcase.host2.udp packetReceived:vector(packetBytes):sumweights 518
scalar BlockAckShowcase.host2.udp packetReceived:vector(packetBytes):mean 808.3861003861
scalar BlockAckShowcase.host2.udp packetReceived:vector(packetBytes):stddev 300.80460374194
scalar BlockAckShowcase.host2.udp packetReceived:vector(packetBytes):min 708
scalar BlockAckShowcase.host2.udp packetReceived:vector(packetBytes):max 1708
scalar BlockAckShowcase.host2.udp packetReceived:vector(packetBytes):starttime 0.00053680863
scalar BlockAckShowcase.host2.udp packetReceived:vector(packetBytes):endtime 0.99344552147
scalar BlockAckShowcase.host2.udp passedUpPk:vector(count):count 519
scalar BlockAckShowcase.host2.udp passedUpPk:vector(count):sum 134421
scalar BlockAckShowcase.host2.udp passedUpPk:vector(count):sumweights 519
scalar BlockAckShowcase.host2.udp passedUpPk:vector(count):mean 259
scalar BlockAckShowcase.host2.udp passedUpPk:vector(count):stddev 149.96666296214
scalar BlockAckShowcase.host2.udp passedUpPk:vector(count):min 0
scalar BlockAckShowcase.host2.udp passedUpPk:vector(count):max 518
scalar BlockAckShowcase.host2.udp passedUpPk:vector(count):starttime 0
scalar BlockAckShowcase.host2.udp passedUpPk:vector(count):endtime 0.99344552147
scalar BlockAckShowcase.host2.udp droppedPkWrongPort:vector(count):count 1
scalar BlockAckShowcase.host2.udp droppedPkWrongPort:vector(count):sum 0
scalar BlockAckShowcase.host2.udp droppedPkWrongPort:vector(count):sumweights 1
scalar BlockAckShowcase.host2.udp droppedPkWrongPort:vector(count):mean 0
scalar BlockAckShowcase.host2.udp droppedPkWrongPort:vector(count):stddev nan
scalar BlockAckShowcase.host2.udp droppedPkWrongPort:vector(count):min 0
scalar BlockAckShowcase.host2.udp droppedPkWrongPort:vector(count):max 0
scalar BlockAckShowcase.host2.udp droppedPkWrongPort:vector(count):starttime 0
scalar BlockAckShowcase.host2.udp droppedPkWrongPort:vector(count):endtime 0
scalar BlockAckShowcase.host2.udp droppedPkBadChecksum:vector(count):count 1
scalar BlockAckShowcase.host2.udp droppedPkBadChecksum:vector(count):sum 0
scalar BlockAckShowcase.host2.udp droppedPkBadChecksum:vector(count):sumweights 1
scalar BlockAckShowcase.host2.udp droppedPkBadChecksum:vector(count):mean 0
scalar BlockAckShowcase.host2.udp droppedPkBadChecksum:vector(count):stddev nan
scalar BlockAckShowcase.host2.udp droppedPkBadChecksum:vector(count):min 0
scalar BlockAckShowcase.host2.udp droppedPkBadChecksum:vector(count):max 0
scalar BlockAckShowcase.host2.udp droppedPkBadChecksum:vector(count):starttime 0
scalar BlockAckShowcase.host2.udp droppedPkBadChecksum:vector(count):endtime 0
scalar BlockAckShowcase.host2.app[0] packetReceived:vector(packetBytes):count 466
scalar BlockAckShowcase.host2.app[0] packetReceived:vector(packetBytes):sum 326200
scalar BlockAckShowcase.host2.app[0] packetReceived:vector(packetBytes):sumweights 466
scalar BlockAckShowcase.host2.app[0] packetReceived:vector(packetBytes):mean 700
scalar BlockAckShowcase.host2.app[0] packetReceived:vector(packetBytes):stddev 0
scalar BlockAckShowcase.host2.app[0] packetReceived:vector(packetBytes):min 700
scalar BlockAckShowcase.host2.app[0] packetReceived:vector(packetBytes):max 700
scalar BlockAckShowcase.host2.app[0] packetReceived:vector(packetBytes):starttime 0.00053680863
scalar BlockAckShowcase.host2.app[0] packetReceived:vector(packetBytes):endtime 0.99344552147
scalar BlockAckShowcase.host2.app[0] throughput:vector:count 10
scalar BlockAckShowcase.host2.app[0] throughput:vector:sum 26096000
scalar BlockAckShowcase.host2.app[0] throughput:vector:sumweights 10
scalar BlockAckShowcase.host2.app[0] throughput:vector:mean 2609600
scalar BlockAckShowcase.host2.app[0] throughput:vector:stddev 1231490.8038634
scalar BlockAckShowcase.host2.app[0] throughput:vector:min 504000
scalar BlockAckShowcase.host2.app[0] throughput:vector:max 3808000
scalar BlockAckShowcase.host2.app[0] throughput:vector:starttime 0.1
scalar BlockAckShowcase.host2.app[0] throughput:vector:endtime 1
scalar BlockAckShowcase.host2.app[0] endToEndDelay:vector:count 466
scalar BlockAckShowcase.host2.app[0] endToEndDelay:vector:sum 87.29823906692
scalar BlockAckShowcase.host2.app[0] endToEndDelay:vector:sumweights 466
scalar BlockAckShowcase.host2.app[0] endToEndDelay:vector:mean 0.18733527696764
scalar BlockAckShowcase.host2.app[0] endToEndDelay:vector:stddev 0.04673564633485
scalar BlockAckShowcase.host2.app[0] endToEndDelay:vector:min 0.00043680863
scalar BlockAckShowcase.host2.app[0] endToEndDelay:vector:max 0.30363153657
scalar BlockAckShowcase.host2.app[0] endToEndDelay:vector:starttime 0.00053680863
scalar BlockAckShowcase.host2.app[0] endToEndDelay:vector:endtime 0.99344552147
scalar BlockAckShowcase.host2.app[0] rcvdPkSeqNo:vector:count 466
scalar BlockAckShowcase.host2.app[0] rcvdPkSeqNo:vector:sum 1910788
scalar BlockAckShowcase.host2.app[0] rcvdPkSeqNo:vector:sumweights 466
scalar BlockAckShowcase.host2.app[0] rcvdPkSeqNo:vector:mean 4100.4034334764
scalar BlockAckShowcase.host2.app[0] rcvdPkSeqNo:vector:stddev 2499.2537777292
scalar BlockAckShowcase.host2.app[0] rcvdPkSeqNo:vector:min 0
scalar BlockAckShowcase.host2.app[0] rcvdPkSeqNo:vector:max 8124
scalar BlockAckShowcase.host2.app[0] rcvdPkSeqNo:vector:starttime 0.00053680863
scalar BlockAckShowcase.host2.app[0] rcvdPkSeqNo:vector:endtime 0.99344552147
scalar BlockAckShowcase.host2.app[1] packetReceived:vector(packetBytes):count 52
scalar BlockAckShowcase.host2.app[1] packetReceived:vector(packetBytes):sum 88400
scalar BlockAckShowcase.host2.app[1] packetReceived:vector(packetBytes):sumweights 52
scalar BlockAckShowcase.host2.app[1] packetReceived:vector(packetBytes):mean 1700
scalar BlockAckShowcase.host2.app[1] packetReceived:vector(packetBytes):stddev 0
scalar BlockAckShowcase.host2.app[1] packetReceived:vector(packetBytes):min 1700
scalar BlockAckShowcase.host2.app[1] packetReceived:vector(packetBytes):max 1700
scalar BlockAckShowcase.host2.app[1] packetReceived:vector(packetBytes):starttime 0.00237442589
scalar BlockAckShowcase.host2.app[1] packetReceived:vector(packetBytes):endtime 0.29632183301
scalar BlockAckShowcase.host2.app[1] throughput:vector:count 10
scalar BlockAckShowcase.host2.app[1] throughput:vector:sum 7072000
scalar BlockAckShowcase.host2.app[1] throughput:vector:sumweights 10
scalar BlockAckShowcase.host2.app[1] throughput:vector:mean 707200
scalar BlockAckShowcase.host2.app[1] throughput:vector:stddev 1178317.8971172
scalar BlockAckShowcase.host2.app[1] throughput:vector:min 0
scalar BlockAckShowcase.host2.app[1] throughput:vector:max 2856000
scalar BlockAckShowcase.host2.app[1] throughput:vector:starttime 0.1
scalar BlockAckShowcase.host2.app[1] throughput:vector:endtime 1
scalar BlockAckShowcase.host2.app[1] endToEndDelay:vector:count 52
scalar BlockAckShowcase.host2.app[1] endToEndDelay:vector:sum 8.140094904
scalar BlockAckShowcase.host2.app[1] endToEndDelay:vector:sumweights 52
scalar BlockAckShowcase.host2.app[1] endToEndDelay:vector:mean 0.15654028661538
scalar BlockAckShowcase.host2.app[1] endToEndDelay:vector:stddev 0.092415576090025
scalar BlockAckShowcase.host2.app[1] endToEndDelay:vector:min 0.00227442589
scalar BlockAckShowcase.host2.app[1] endToEndDelay:vector:max 0.29122183301
scalar BlockAckShowcase.host2.app[1] endToEndDelay:vector:starttime 0.00237442589
scalar BlockAckShowcase.host2.app[1] endToEndDelay:vector:endtime 0.29632183301
scalar BlockAckShowcase.host2.app[1] rcvdPkSeqNo:vector:count 52
scalar BlockAckShowcase.host2.app[1] rcvdPkSeqNo:vector:sum 1326
scalar BlockAckShowcase.host2.app[1] rcvdPkSeqNo:vector:sumweights 52
scalar BlockAckShowcase.host2.app[1] rcvdPkSeqNo:vector:mean 25.5
scalar BlockAckShowcase.host2.app[1] rcvdPkSeqNo:vector:stddev 15.154757228892
scalar BlockAckShowcase.host2.app[1] rcvdPkSeqNo:vector:min 0
scalar BlockAckShowcase.host2.app[1] rcvdPkSeqNo:vector:max 51
scalar BlockAckShowcase.host2.app[1] rcvdPkSeqNo:vector:starttime 0.00237442589
scalar BlockAckShowcase.host2.app[1] rcvdPkSeqNo:vector:endtime 0.29632183301

