version 3
run General-0-20251118-11:57:52-113569
attr configname General
attr datetime 20251118-11:57:52
attr datetimef 20251118-115752
attr experiment General
attr inifile omnetpp.ini
attr iterationvars ""
attr iterationvarsd ""
attr iterationvarsf ""
attr measurement ""
attr network MulticastFailureProtectionShowcase
attr processid 113569
attr repetition 0
attr replication #0
attr resultdir results
attr runnumber 0
attr seedset 0
config **.param-recording false
config image-path /home/zoli/Projects/OMNET/inet/images
config output-scalar-file results/omnetpp.ini-General-#0.sca
config output-scalar-precision 17
config output-vector-file results/omnetpp.ini-General-#0.vec
config output-vector-precision 17
config record-eventlog false
config sim-time-limit 10ms
config network MulticastFailureProtectionShowcase
config sim-time-limit 10ms
config description "Automatic multicast static stream redundancy configuration with failure protection"
config *.macForwardingTableConfigurator.typename ""
config *.*.hasStreamRedundancy true
config *.*.eth[*].bitrate 1Gbps
config *.a.numApps 1
config *.a.app[0].typename EthernetApp
config *.a.app[0].io.remoteAddress "\"01:00:00:00:00:00\""
config *.a.app[0].source.packetLength 1200B
config *.a.app[0].source.productionInterval 1ms
config *.streamRedundancyConfigurator.typename StreamRedundancyConfigurator
config *.failureProtectionConfigurator.typename FailureProtectionConfigurator
config *.failureProtectionConfigurator.gateScheduleConfiguratorModule "\"\""
config *.failureProtectionConfigurator.configuration "[{name: \"S\", application: \"app[0]\", source: \"a\", destination: \"not a\",\n                                                  pcp: 0, packetFilter: \"*\", destinationAddress: \"01:00:00:00:00:00\",\n                                                  packetLength: 1200B, packetInterval: 1ms, maxLatency: 100us,\n                                                  linkFailureProtection: [{any: 1, of: \"*->*\"}]}]"
config *.visualizer.failureProtectionConfigurationVisualizer.displayTrees true
config *.visualizer.failureProtectionConfigurationVisualizer.lineStyle "\"dashed\""
config *.visualizer.streamRedundancyConfigurationVisualizer.displayTrees true
config *.visualizer.streamRedundancyConfigurationVisualizer.lineColor "\"black\""

scalar MulticastFailureProtectionShowcase.a.app[0].source packets:count 11
scalar MulticastFailureProtectionShowcase.a.app[0].source packetLengths:sum 105600
scalar MulticastFailureProtectionShowcase.a.app[0].sink packets:count 0
scalar MulticastFailureProtectionShowcase.a.app[0].sink packetLengths:sum 0
scalar MulticastFailureProtectionShowcase.a.app[0].sink droppedPackets:count 0
scalar MulticastFailureProtectionShowcase.a.app[0].sink droppedPacketLengths:sum 0
scalar MulticastFailureProtectionShowcase.a.app[0].io "packets sent" 11
scalar MulticastFailureProtectionShowcase.a.app[0].io "packets received" 0
scalar MulticastFailureProtectionShowcase.a.app[0].io packetReceived:count 0
scalar MulticastFailureProtectionShowcase.a.app[0].io packetReceived:sum(packetBytes) 0
scalar MulticastFailureProtectionShowcase.a.app[0].io packetSent:count 11
scalar MulticastFailureProtectionShowcase.a.app[0].io packetSent:sum(packetBytes) 13200
scalar MulticastFailureProtectionShowcase.a.bridging.directionReverser.reverser outgoingPackets:count 0
scalar MulticastFailureProtectionShowcase.a.bridging.directionReverser.reverser outgoingPacketLengths:sum 0
scalar MulticastFailureProtectionShowcase.a.bridging.directionReverser.reverser flowOutgoingPacketLengths:sum 0
scalar MulticastFailureProtectionShowcase.a.bridging.directionReverser.reverser incomingPackets:count 0
scalar MulticastFailureProtectionShowcase.a.bridging.directionReverser.reverser incomingPacketLengths:sum 0
scalar MulticastFailureProtectionShowcase.a.bridging.directionReverser.reverser flowIncomingPacketLengths:sum 0
scalar MulticastFailureProtectionShowcase.a.bridging.directionReverser.join packets:count 0
scalar MulticastFailureProtectionShowcase.a.bridging.directionReverser.join packetLengths:sum 0
scalar MulticastFailureProtectionShowcase.a.bridging.streamIdentifier.identifier outgoingPackets:count 11
scalar MulticastFailureProtectionShowcase.a.bridging.streamIdentifier.identifier outgoingPacketLengths:sum 105600
scalar MulticastFailureProtectionShowcase.a.bridging.streamIdentifier.identifier flowOutgoingPacketLengths:sum 0
scalar MulticastFailureProtectionShowcase.a.bridging.streamIdentifier.identifier incomingPackets:count 11
scalar MulticastFailureProtectionShowcase.a.bridging.streamIdentifier.identifier incomingPacketLengths:sum 105600
scalar MulticastFailureProtectionShowcase.a.bridging.streamIdentifier.identifier flowIncomingPacketLengths:sum 0
scalar MulticastFailureProtectionShowcase.a.bridging.streamRelay.merger outgoingPackets:count 0
scalar MulticastFailureProtectionShowcase.a.bridging.streamRelay.merger outgoingPacketLengths:sum 0
scalar MulticastFailureProtectionShowcase.a.bridging.streamRelay.merger flowOutgoingPacketLengths:sum 0
scalar MulticastFailureProtectionShowcase.a.bridging.streamRelay.merger incomingPackets:count 0
scalar MulticastFailureProtectionShowcase.a.bridging.streamRelay.merger incomingPacketLengths:sum 0
scalar MulticastFailureProtectionShowcase.a.bridging.streamRelay.merger flowIncomingPacketLengths:sum 0
scalar MulticastFailureProtectionShowcase.a.bridging.streamRelay.merger droppedPackets:count 0
scalar MulticastFailureProtectionShowcase.a.bridging.streamRelay.merger droppedPacketLengths:sum 0
scalar MulticastFailureProtectionShowcase.a.bridging.streamRelay.merger flowDroppedPacketLengths:sum 0
scalar MulticastFailureProtectionShowcase.a.bridging.streamCoder.decoder outgoingPackets:count 0
scalar MulticastFailureProtectionShowcase.a.bridging.streamCoder.decoder outgoingPacketLengths:sum 0
scalar MulticastFailureProtectionShowcase.a.bridging.streamCoder.decoder flowOutgoingPacketLengths:sum 0
scalar MulticastFailureProtectionShowcase.a.bridging.streamCoder.decoder incomingPackets:count 0
scalar MulticastFailureProtectionShowcase.a.bridging.streamCoder.decoder incomingPacketLengths:sum 0
scalar MulticastFailureProtectionShowcase.a.bridging.streamCoder.decoder flowIncomingPacketLengths:sum 0
scalar MulticastFailureProtectionShowcase.a.bridging.streamCoder.encoder outgoingPackets:count 22
scalar MulticastFailureProtectionShowcase.a.bridging.streamCoder.encoder outgoingPacketLengths:sum 211200
scalar MulticastFailureProtectionShowcase.a.bridging.streamCoder.encoder flowOutgoingPacketLengths:sum 0
scalar MulticastFailureProtectionShowcase.a.bridging.streamCoder.encoder incomingPackets:count 22
scalar MulticastFailureProtectionShowcase.a.bridging.streamCoder.encoder incomingPacketLengths:sum 211200
scalar MulticastFailureProtectionShowcase.a.bridging.streamCoder.encoder flowIncomingPacketLengths:sum 0
scalar MulticastFailureProtectionShowcase.a.bridging.interfaceRelay.learner outgoingPackets:count 0
scalar MulticastFailureProtectionShowcase.a.bridging.interfaceRelay.learner outgoingPacketLengths:sum 0
scalar MulticastFailureProtectionShowcase.a.bridging.interfaceRelay.learner flowOutgoingPacketLengths:sum 0
scalar MulticastFailureProtectionShowcase.a.bridging.interfaceRelay.learner incomingPackets:count 0
scalar MulticastFailureProtectionShowcase.a.bridging.interfaceRelay.learner incomingPacketLengths:sum 0
scalar MulticastFailureProtectionShowcase.a.bridging.interfaceRelay.learner flowIncomingPacketLengths:sum 0
scalar MulticastFailureProtectionShowcase.a.bridging.interfaceRelay.selector packetDropped:count 0
scalar MulticastFailureProtectionShowcase.a.bridging.interfaceRelay.selector packetDropped:sum(packetBytes) 0
scalar MulticastFailureProtectionShowcase.a.ethernet.macHeaderInserter outgoingPackets:count 22
scalar MulticastFailureProtectionShowcase.a.ethernet.macHeaderInserter outgoingPacketLengths:sum 215424
scalar MulticastFailureProtectionShowcase.a.ethernet.macHeaderInserter flowOutgoingPacketLengths:sum 0
scalar MulticastFailureProtectionShowcase.a.ethernet.macHeaderInserter incomingPackets:count 22
scalar MulticastFailureProtectionShowcase.a.ethernet.macHeaderInserter incomingPacketLengths:sum 212960
scalar MulticastFailureProtectionShowcase.a.ethernet.macHeaderInserter flowIncomingPacketLengths:sum 0
scalar MulticastFailureProtectionShowcase.a.ethernet.paddingInserter outgoingPackets:count 22
scalar MulticastFailureProtectionShowcase.a.ethernet.paddingInserter outgoingPacketLengths:sum 215424
scalar MulticastFailureProtectionShowcase.a.ethernet.paddingInserter flowOutgoingPacketLengths:sum 0
scalar MulticastFailureProtectionShowcase.a.ethernet.paddingInserter incomingPackets:count 22
scalar MulticastFailureProtectionShowcase.a.ethernet.paddingInserter incomingPacketLengths:sum 215424
scalar MulticastFailureProtectionShowcase.a.ethernet.paddingInserter flowIncomingPacketLengths:sum 0
scalar MulticastFailureProtectionShowcase.a.ethernet.fcsInserter outgoingPackets:count 22
scalar MulticastFailureProtectionShowcase.a.ethernet.fcsInserter outgoingPacketLengths:sum 216128
scalar MulticastFailureProtectionShowcase.a.ethernet.fcsInserter flowOutgoingPacketLengths:sum 0
scalar MulticastFailureProtectionShowcase.a.ethernet.fcsInserter incomingPackets:count 22
scalar MulticastFailureProtectionShowcase.a.ethernet.fcsInserter incomingPacketLengths:sum 215424
scalar MulticastFailureProtectionShowcase.a.ethernet.fcsInserter flowIncomingPacketLengths:sum 0
scalar MulticastFailureProtectionShowcase.a.ethernet.macHeaderChecker outgoingPackets:count 0
scalar MulticastFailureProtectionShowcase.a.ethernet.macHeaderChecker outgoingPacketLengths:sum 0
scalar MulticastFailureProtectionShowcase.a.ethernet.macHeaderChecker flowOutgoingPacketLengths:sum 0
scalar MulticastFailureProtectionShowcase.a.ethernet.macHeaderChecker incomingPackets:count 0
scalar MulticastFailureProtectionShowcase.a.ethernet.macHeaderChecker incomingPacketLengths:sum 0
scalar MulticastFailureProtectionShowcase.a.ethernet.macHeaderChecker flowIncomingPacketLengths:sum 0
scalar MulticastFailureProtectionShowcase.a.ethernet.macHeaderChecker droppedPackets:count 0
scalar MulticastFailureProtectionShowcase.a.ethernet.macHeaderChecker droppedPacketLengths:sum 0
scalar MulticastFailureProtectionShowcase.a.ethernet.macHeaderChecker flowDroppedPacketLengths:sum 0
scalar MulticastFailureProtectionShowcase.a.ethernet.fcsChecker outgoingPackets:count 0
scalar MulticastFailureProtectionShowcase.a.ethernet.fcsChecker outgoingPacketLengths:sum 0
scalar MulticastFailureProtectionShowcase.a.ethernet.fcsChecker flowOutgoingPacketLengths:sum 0
scalar MulticastFailureProtectionShowcase.a.ethernet.fcsChecker incomingPackets:count 0
scalar MulticastFailureProtectionShowcase.a.ethernet.fcsChecker incomingPacketLengths:sum 0
scalar MulticastFailureProtectionShowcase.a.ethernet.fcsChecker flowIncomingPacketLengths:sum 0
scalar MulticastFailureProtectionShowcase.a.ethernet.fcsChecker droppedPackets:count 0
scalar MulticastFailureProtectionShowcase.a.ethernet.fcsChecker droppedPacketLengths:sum 0
scalar MulticastFailureProtectionShowcase.a.ethernet.fcsChecker flowDroppedPacketLengths:sum 0
scalar MulticastFailureProtectionShowcase.a.ieee8021q.qTagHeaderInserter outgoingPackets:count 22
scalar MulticastFailureProtectionShowcase.a.ieee8021q.qTagHeaderInserter outgoingPacketLengths:sum 211904
scalar MulticastFailureProtectionShowcase.a.ieee8021q.qTagHeaderInserter flowOutgoingPacketLengths:sum 0
scalar MulticastFailureProtectionShowcase.a.ieee8021q.qTagHeaderInserter incomingPackets:count 22
scalar MulticastFailureProtectionShowcase.a.ieee8021q.qTagHeaderInserter incomingPacketLengths:sum 211200
scalar MulticastFailureProtectionShowcase.a.ieee8021q.qTagHeaderInserter flowIncomingPacketLengths:sum 0
scalar MulticastFailureProtectionShowcase.a.ieee8021q.qTagHeaderChecker outgoingPackets:count 0
scalar MulticastFailureProtectionShowcase.a.ieee8021q.qTagHeaderChecker outgoingPacketLengths:sum 0
scalar MulticastFailureProtectionShowcase.a.ieee8021q.qTagHeaderChecker flowOutgoingPacketLengths:sum 0
scalar MulticastFailureProtectionShowcase.a.ieee8021q.qTagHeaderChecker incomingPackets:count 0
scalar MulticastFailureProtectionShowcase.a.ieee8021q.qTagHeaderChecker incomingPacketLengths:sum 0
scalar MulticastFailureProtectionShowcase.a.ieee8021q.qTagHeaderChecker flowIncomingPacketLengths:sum 0
scalar MulticastFailureProtectionShowcase.a.ieee8021q.qTagHeaderChecker droppedPackets:count 0
scalar MulticastFailureProtectionShowcase.a.ieee8021q.qTagHeaderChecker droppedPacketLengths:sum 0
scalar MulticastFailureProtectionShowcase.a.ieee8021q.qTagHeaderChecker flowDroppedPacketLengths:sum 0
scalar MulticastFailureProtectionShowcase.a.ieee8021r.rTagHeaderInserter outgoingPackets:count 22
scalar MulticastFailureProtectionShowcase.a.ieee8021r.rTagHeaderInserter outgoingPacketLengths:sum 212960
scalar MulticastFailureProtectionShowcase.a.ieee8021r.rTagHeaderInserter flowOutgoingPacketLengths:sum 0
scalar MulticastFailureProtectionShowcase.a.ieee8021r.rTagHeaderInserter incomingPackets:count 22
scalar MulticastFailureProtectionShowcase.a.ieee8021r.rTagHeaderInserter incomingPacketLengths:sum 211904
scalar MulticastFailureProtectionShowcase.a.ieee8021r.rTagHeaderInserter flowIncomingPacketLengths:sum 0
scalar MulticastFailureProtectionShowcase.a.ieee8021r.rTagHeaderChecker outgoingPackets:count 0
scalar MulticastFailureProtectionShowcase.a.ieee8021r.rTagHeaderChecker outgoingPacketLengths:sum 0
scalar MulticastFailureProtectionShowcase.a.ieee8021r.rTagHeaderChecker flowOutgoingPacketLengths:sum 0
scalar MulticastFailureProtectionShowcase.a.ieee8021r.rTagHeaderChecker incomingPackets:count 0
scalar MulticastFailureProtectionShowcase.a.ieee8021r.rTagHeaderChecker incomingPacketLengths:sum 0
scalar MulticastFailureProtectionShowcase.a.ieee8021r.rTagHeaderChecker flowIncomingPacketLengths:sum 0
scalar MulticastFailureProtectionShowcase.a.ieee8021r.rTagHeaderChecker droppedPackets:count 0
scalar MulticastFailureProtectionShowcase.a.ieee8021r.rTagHeaderChecker droppedPacketLengths:sum 0
scalar MulticastFailureProtectionShowcase.a.ieee8021r.rTagHeaderChecker flowDroppedPacketLengths:sum 0
scalar MulticastFailureProtectionShowcase.a.eth[0].macLayer.queue queueLength:last 0
scalar MulticastFailureProtectionShowcase.a.eth[0].macLayer.queue queueLength:max 1
scalar MulticastFailureProtectionShowcase.a.eth[0].macLayer.queue queueLength:timeavg 0
scalar MulticastFailureProtectionShowcase.a.eth[0].macLayer.queue queueBitLength:last 0
scalar MulticastFailureProtectionShowcase.a.eth[0].macLayer.queue queueBitLength:max 9824
scalar MulticastFailureProtectionShowcase.a.eth[0].macLayer.queue queueBitLength:timeavg 0
scalar MulticastFailureProtectionShowcase.a.eth[0].macLayer.queue outgoingPackets:count 11
scalar MulticastFailureProtectionShowcase.a.eth[0].macLayer.queue outgoingPacketLengths:sum 108064
scalar MulticastFailureProtectionShowcase.a.eth[0].macLayer.queue incomingPackets:count 11
scalar MulticastFailureProtectionShowcase.a.eth[0].macLayer.queue incomingPacketLengths:sum 108064
scalar MulticastFailureProtectionShowcase.a.eth[0].macLayer.queue droppedPacketsQueueOverflow:count 0
scalar MulticastFailureProtectionShowcase.a.eth[0].macLayer.queue droppedPacketLengthsQueueOverflow:sum 0
scalar MulticastFailureProtectionShowcase.a.eth[0].macLayer.server incomingPackets:count 11
scalar MulticastFailureProtectionShowcase.a.eth[0].macLayer.server incomingPacketLengths:sum 108064
scalar MulticastFailureProtectionShowcase.a.eth[0].macLayer.server outgoingPackets:count 11
scalar MulticastFailureProtectionShowcase.a.eth[0].macLayer.server outgoingPacketLengths:sum 108064
scalar MulticastFailureProtectionShowcase.a.eth[0].macLayer.outboundEmitter outgoingPackets:count 11
scalar MulticastFailureProtectionShowcase.a.eth[0].macLayer.outboundEmitter outgoingPacketLengths:sum 108064
scalar MulticastFailureProtectionShowcase.a.eth[0].macLayer.outboundEmitter flowOutgoingPacketLengths:sum 0
scalar MulticastFailureProtectionShowcase.a.eth[0].macLayer.outboundEmitter incomingPackets:count 11
scalar MulticastFailureProtectionShowcase.a.eth[0].macLayer.outboundEmitter incomingPacketLengths:sum 108064
scalar MulticastFailureProtectionShowcase.a.eth[0].macLayer.outboundEmitter flowIncomingPacketLengths:sum 0
scalar MulticastFailureProtectionShowcase.a.eth[0].macLayer.fcsChecker outgoingPackets:count 0
scalar MulticastFailureProtectionShowcase.a.eth[0].macLayer.fcsChecker outgoingPacketLengths:sum 0
scalar MulticastFailureProtectionShowcase.a.eth[0].macLayer.fcsChecker flowOutgoingPacketLengths:sum 0
scalar MulticastFailureProtectionShowcase.a.eth[0].macLayer.fcsChecker incomingPackets:count 0
scalar MulticastFailureProtectionShowcase.a.eth[0].macLayer.fcsChecker incomingPacketLengths:sum 0
scalar MulticastFailureProtectionShowcase.a.eth[0].macLayer.fcsChecker flowIncomingPacketLengths:sum 0
scalar MulticastFailureProtectionShowcase.a.eth[0].macLayer.fcsChecker droppedPackets:count 0
scalar MulticastFailureProtectionShowcase.a.eth[0].macLayer.fcsChecker droppedPacketLengths:sum 0
scalar MulticastFailureProtectionShowcase.a.eth[0].macLayer.fcsChecker flowDroppedPacketLengths:sum 0
scalar MulticastFailureProtectionShowcase.a.eth[0].macLayer.inboundEmitter outgoingPackets:count 0
scalar MulticastFailureProtectionShowcase.a.eth[0].macLayer.inboundEmitter outgoingPacketLengths:sum 0
scalar MulticastFailureProtectionShowcase.a.eth[0].macLayer.inboundEmitter flowOutgoingPacketLengths:sum 0
scalar MulticastFailureProtectionShowcase.a.eth[0].macLayer.inboundEmitter incomingPackets:count 0
scalar MulticastFailureProtectionShowcase.a.eth[0].macLayer.inboundEmitter incomingPacketLengths:sum 0
scalar MulticastFailureProtectionShowcase.a.eth[0].macLayer.inboundEmitter flowIncomingPacketLengths:sum 0
scalar MulticastFailureProtectionShowcase.a.eth[0].phyLayer.phyHeaderInserter outgoingPackets:count 11
scalar MulticastFailureProtectionShowcase.a.eth[0].phyLayer.phyHeaderInserter outgoingPacketLengths:sum 108768
scalar MulticastFailureProtectionShowcase.a.eth[0].phyLayer.phyHeaderInserter flowOutgoingPacketLengths:sum 0
scalar MulticastFailureProtectionShowcase.a.eth[0].phyLayer.phyHeaderInserter incomingPackets:count 11
scalar MulticastFailureProtectionShowcase.a.eth[0].phyLayer.phyHeaderInserter incomingPacketLengths:sum 108064
scalar MulticastFailureProtectionShowcase.a.eth[0].phyLayer.phyHeaderInserter flowIncomingPacketLengths:sum 0
scalar MulticastFailureProtectionShowcase.a.eth[0].phyLayer.outboundEmitter outgoingPackets:count 11
scalar MulticastFailureProtectionShowcase.a.eth[0].phyLayer.outboundEmitter outgoingPacketLengths:sum 108768
scalar MulticastFailureProtectionShowcase.a.eth[0].phyLayer.outboundEmitter flowOutgoingPacketLengths:sum 0
scalar MulticastFailureProtectionShowcase.a.eth[0].phyLayer.outboundEmitter incomingPackets:count 11
scalar MulticastFailureProtectionShowcase.a.eth[0].phyLayer.outboundEmitter incomingPacketLengths:sum 108768
scalar MulticastFailureProtectionShowcase.a.eth[0].phyLayer.outboundEmitter flowIncomingPacketLengths:sum 0
scalar MulticastFailureProtectionShowcase.a.eth[0].phyLayer.transmitter propagationTime 4.9999999999999998e-08
scalar MulticastFailureProtectionShowcase.a.eth[0].phyLayer.phyHeaderChecker outgoingPackets:count 0
scalar MulticastFailureProtectionShowcase.a.eth[0].phyLayer.phyHeaderChecker outgoingPacketLengths:sum 0
scalar MulticastFailureProtectionShowcase.a.eth[0].phyLayer.phyHeaderChecker flowOutgoingPacketLengths:sum 0
scalar MulticastFailureProtectionShowcase.a.eth[0].phyLayer.phyHeaderChecker incomingPackets:count 0
scalar MulticastFailureProtectionShowcase.a.eth[0].phyLayer.phyHeaderChecker incomingPacketLengths:sum 0
scalar MulticastFailureProtectionShowcase.a.eth[0].phyLayer.phyHeaderChecker flowIncomingPacketLengths:sum 0
scalar MulticastFailureProtectionShowcase.a.eth[0].phyLayer.phyHeaderChecker droppedPackets:count 0
scalar MulticastFailureProtectionShowcase.a.eth[0].phyLayer.phyHeaderChecker droppedPacketLengths:sum 0
scalar MulticastFailureProtectionShowcase.a.eth[0].phyLayer.phyHeaderChecker flowDroppedPacketLengths:sum 0
scalar MulticastFailureProtectionShowcase.a.eth[0].phyLayer.inboundEmitter outgoingPackets:count 0
scalar MulticastFailureProtectionShowcase.a.eth[0].phyLayer.inboundEmitter outgoingPacketLengths:sum 0
scalar MulticastFailureProtectionShowcase.a.eth[0].phyLayer.inboundEmitter flowOutgoingPacketLengths:sum 0
scalar MulticastFailureProtectionShowcase.a.eth[0].phyLayer.inboundEmitter incomingPackets:count 0
scalar MulticastFailureProtectionShowcase.a.eth[0].phyLayer.inboundEmitter incomingPacketLengths:sum 0
scalar MulticastFailureProtectionShowcase.a.eth[0].phyLayer.inboundEmitter flowIncomingPacketLengths:sum 0
scalar MulticastFailureProtectionShowcase.a.eth[0] packetDropInterfaceDown:count 0
scalar MulticastFailureProtectionShowcase.a.eth[0] packetDropInterfaceDown:sum(packetBytes) 0
scalar MulticastFailureProtectionShowcase.a.eth[0] packetDropNoCarrier:count 0
scalar MulticastFailureProtectionShowcase.a.eth[0] packetDropNoCarrier:sum(packetBytes) 0
scalar MulticastFailureProtectionShowcase.a.eth[1].macLayer.queue queueLength:last 0
scalar MulticastFailureProtectionShowcase.a.eth[1].macLayer.queue queueLength:max 1
scalar MulticastFailureProtectionShowcase.a.eth[1].macLayer.queue queueLength:timeavg 0
scalar MulticastFailureProtectionShowcase.a.eth[1].macLayer.queue queueBitLength:last 0
scalar MulticastFailureProtectionShowcase.a.eth[1].macLayer.queue queueBitLength:max 9824
scalar MulticastFailureProtectionShowcase.a.eth[1].macLayer.queue queueBitLength:timeavg 0
scalar MulticastFailureProtectionShowcase.a.eth[1].macLayer.queue outgoingPackets:count 11
scalar MulticastFailureProtectionShowcase.a.eth[1].macLayer.queue outgoingPacketLengths:sum 108064
scalar MulticastFailureProtectionShowcase.a.eth[1].macLayer.queue incomingPackets:count 11
scalar MulticastFailureProtectionShowcase.a.eth[1].macLayer.queue incomingPacketLengths:sum 108064
scalar MulticastFailureProtectionShowcase.a.eth[1].macLayer.queue droppedPacketsQueueOverflow:count 0
scalar MulticastFailureProtectionShowcase.a.eth[1].macLayer.queue droppedPacketLengthsQueueOverflow:sum 0
scalar MulticastFailureProtectionShowcase.a.eth[1].macLayer.server incomingPackets:count 11
scalar MulticastFailureProtectionShowcase.a.eth[1].macLayer.server incomingPacketLengths:sum 108064
scalar MulticastFailureProtectionShowcase.a.eth[1].macLayer.server outgoingPackets:count 11
scalar MulticastFailureProtectionShowcase.a.eth[1].macLayer.server outgoingPacketLengths:sum 108064
scalar MulticastFailureProtectionShowcase.a.eth[1].macLayer.outboundEmitter outgoingPackets:count 11
scalar MulticastFailureProtectionShowcase.a.eth[1].macLayer.outboundEmitter outgoingPacketLengths:sum 108064
scalar MulticastFailureProtectionShowcase.a.eth[1].macLayer.outboundEmitter flowOutgoingPacketLengths:sum 0
scalar MulticastFailureProtectionShowcase.a.eth[1].macLayer.outboundEmitter incomingPackets:count 11
scalar MulticastFailureProtectionShowcase.a.eth[1].macLayer.outboundEmitter incomingPacketLengths:sum 108064
scalar MulticastFailureProtectionShowcase.a.eth[1].macLayer.outboundEmitter flowIncomingPacketLengths:sum 0
scalar MulticastFailureProtectionShowcase.a.eth[1].macLayer.fcsChecker outgoingPackets:count 0
scalar MulticastFailureProtectionShowcase.a.eth[1].macLayer.fcsChecker outgoingPacketLengths:sum 0
scalar MulticastFailureProtectionShowcase.a.eth[1].macLayer.fcsChecker flowOutgoingPacketLengths:sum 0
scalar MulticastFailureProtectionShowcase.a.eth[1].macLayer.fcsChecker incomingPackets:count 0
scalar MulticastFailureProtectionShowcase.a.eth[1].macLayer.fcsChecker incomingPacketLengths:sum 0
scalar MulticastFailureProtectionShowcase.a.eth[1].macLayer.fcsChecker flowIncomingPacketLengths:sum 0
scalar MulticastFailureProtectionShowcase.a.eth[1].macLayer.fcsChecker droppedPackets:count 0
scalar MulticastFailureProtectionShowcase.a.eth[1].macLayer.fcsChecker droppedPacketLengths:sum 0
scalar MulticastFailureProtectionShowcase.a.eth[1].macLayer.fcsChecker flowDroppedPacketLengths:sum 0
scalar MulticastFailureProtectionShowcase.a.eth[1].macLayer.inboundEmitter outgoingPackets:count 0
scalar MulticastFailureProtectionShowcase.a.eth[1].macLayer.inboundEmitter outgoingPacketLengths:sum 0
scalar MulticastFailureProtectionShowcase.a.eth[1].macLayer.inboundEmitter flowOutgoingPacketLengths:sum 0
scalar MulticastFailureProtectionShowcase.a.eth[1].macLayer.inboundEmitter incomingPackets:count 0
scalar MulticastFailureProtectionShowcase.a.eth[1].macLayer.inboundEmitter incomingPacketLengths:sum 0
scalar MulticastFailureProtectionShowcase.a.eth[1].macLayer.inboundEmitter flowIncomingPacketLengths:sum 0
scalar MulticastFailureProtectionShowcase.a.eth[1].phyLayer.phyHeaderInserter outgoingPackets:count 11
scalar MulticastFailureProtectionShowcase.a.eth[1].phyLayer.phyHeaderInserter outgoingPacketLengths:sum 108768
scalar MulticastFailureProtectionShowcase.a.eth[1].phyLayer.phyHeaderInserter flowOutgoingPacketLengths:sum 0
scalar MulticastFailureProtectionShowcase.a.eth[1].phyLayer.phyHeaderInserter incomingPackets:count 11
scalar MulticastFailureProtectionShowcase.a.eth[1].phyLayer.phyHeaderInserter incomingPacketLengths:sum 108064
scalar MulticastFailureProtectionShowcase.a.eth[1].phyLayer.phyHeaderInserter flowIncomingPacketLengths:sum 0
scalar MulticastFailureProtectionShowcase.a.eth[1].phyLayer.outboundEmitter outgoingPackets:count 11
scalar MulticastFailureProtectionShowcase.a.eth[1].phyLayer.outboundEmitter outgoingPacketLengths:sum 108768
scalar MulticastFailureProtectionShowcase.a.eth[1].phyLayer.outboundEmitter flowOutgoingPacketLengths:sum 0
scalar MulticastFailureProtectionShowcase.a.eth[1].phyLayer.outboundEmitter incomingPackets:count 11
scalar MulticastFailureProtectionShowcase.a.eth[1].phyLayer.outboundEmitter incomingPacketLengths:sum 108768
scalar MulticastFailureProtectionShowcase.a.eth[1].phyLayer.outboundEmitter flowIncomingPacketLengths:sum 0
scalar MulticastFailureProtectionShowcase.a.eth[1].phyLayer.transmitter propagationTime 4.9999999999999998e-08
scalar MulticastFailureProtectionShowcase.a.eth[1].phyLayer.phyHeaderChecker outgoingPackets:count 0
scalar MulticastFailureProtectionShowcase.a.eth[1].phyLayer.phyHeaderChecker outgoingPacketLengths:sum 0
scalar MulticastFailureProtectionShowcase.a.eth[1].phyLayer.phyHeaderChecker flowOutgoingPacketLengths:sum 0
scalar MulticastFailureProtectionShowcase.a.eth[1].phyLayer.phyHeaderChecker incomingPackets:count 0
scalar MulticastFailureProtectionShowcase.a.eth[1].phyLayer.phyHeaderChecker incomingPacketLengths:sum 0
scalar MulticastFailureProtectionShowcase.a.eth[1].phyLayer.phyHeaderChecker flowIncomingPacketLengths:sum 0
scalar MulticastFailureProtectionShowcase.a.eth[1].phyLayer.phyHeaderChecker droppedPackets:count 0
scalar MulticastFailureProtectionShowcase.a.eth[1].phyLayer.phyHeaderChecker droppedPacketLengths:sum 0
scalar MulticastFailureProtectionShowcase.a.eth[1].phyLayer.phyHeaderChecker flowDroppedPacketLengths:sum 0
scalar MulticastFailureProtectionShowcase.a.eth[1].phyLayer.inboundEmitter outgoingPackets:count 0
scalar MulticastFailureProtectionShowcase.a.eth[1].phyLayer.inboundEmitter outgoingPacketLengths:sum 0
scalar MulticastFailureProtectionShowcase.a.eth[1].phyLayer.inboundEmitter flowOutgoingPacketLengths:sum 0
scalar MulticastFailureProtectionShowcase.a.eth[1].phyLayer.inboundEmitter incomingPackets:count 0
scalar MulticastFailureProtectionShowcase.a.eth[1].phyLayer.inboundEmitter incomingPacketLengths:sum 0
scalar MulticastFailureProtectionShowcase.a.eth[1].phyLayer.inboundEmitter flowIncomingPacketLengths:sum 0
scalar MulticastFailureProtectionShowcase.a.eth[1] packetDropInterfaceDown:count 0
scalar MulticastFailureProtectionShowcase.a.eth[1] packetDropInterfaceDown:sum(packetBytes) 0
scalar MulticastFailureProtectionShowcase.a.eth[1] packetDropNoCarrier:count 0
scalar MulticastFailureProtectionShowcase.a.eth[1] packetDropNoCarrier:sum(packetBytes) 0
scalar MulticastFailureProtectionShowcase.b.bridging.directionReverser.reverser outgoingPackets:count 10
scalar MulticastFailureProtectionShowcase.b.bridging.directionReverser.reverser outgoingPacketLengths:sum 96000
scalar MulticastFailureProtectionShowcase.b.bridging.directionReverser.reverser flowOutgoingPacketLengths:sum 0
scalar MulticastFailureProtectionShowcase.b.bridging.directionReverser.reverser incomingPackets:count 10
scalar MulticastFailureProtectionShowcase.b.bridging.directionReverser.reverser incomingPacketLengths:sum 96000
scalar MulticastFailureProtectionShowcase.b.bridging.directionReverser.reverser flowIncomingPacketLengths:sum 0
scalar MulticastFailureProtectionShowcase.b.bridging.directionReverser.join packets:count 0
scalar MulticastFailureProtectionShowcase.b.bridging.directionReverser.join packetLengths:sum 0
scalar MulticastFailureProtectionShowcase.b.bridging.streamIdentifier.identifier outgoingPackets:count 10
scalar MulticastFailureProtectionShowcase.b.bridging.streamIdentifier.identifier outgoingPacketLengths:sum 96000
scalar MulticastFailureProtectionShowcase.b.bridging.streamIdentifier.identifier flowOutgoingPacketLengths:sum 0
scalar MulticastFailureProtectionShowcase.b.bridging.streamIdentifier.identifier incomingPackets:count 10
scalar MulticastFailureProtectionShowcase.b.bridging.streamIdentifier.identifier incomingPacketLengths:sum 96000
scalar MulticastFailureProtectionShowcase.b.bridging.streamIdentifier.identifier flowIncomingPacketLengths:sum 0
scalar MulticastFailureProtectionShowcase.b.bridging.streamRelay.merger outgoingPackets:count 10
scalar MulticastFailureProtectionShowcase.b.bridging.streamRelay.merger outgoingPacketLengths:sum 96000
scalar MulticastFailureProtectionShowcase.b.bridging.streamRelay.merger flowOutgoingPacketLengths:sum 0
scalar MulticastFailureProtectionShowcase.b.bridging.streamRelay.merger incomingPackets:count 10
scalar MulticastFailureProtectionShowcase.b.bridging.streamRelay.merger incomingPacketLengths:sum 96000
scalar MulticastFailureProtectionShowcase.b.bridging.streamRelay.merger flowIncomingPacketLengths:sum 0
scalar MulticastFailureProtectionShowcase.b.bridging.streamRelay.merger droppedPackets:count 0
scalar MulticastFailureProtectionShowcase.b.bridging.streamRelay.merger droppedPacketLengths:sum 0
scalar MulticastFailureProtectionShowcase.b.bridging.streamRelay.merger flowDroppedPacketLengths:sum 0
scalar MulticastFailureProtectionShowcase.b.bridging.streamCoder.decoder outgoingPackets:count 10
scalar MulticastFailureProtectionShowcase.b.bridging.streamCoder.decoder outgoingPacketLengths:sum 96000
scalar MulticastFailureProtectionShowcase.b.bridging.streamCoder.decoder flowOutgoingPacketLengths:sum 0
scalar MulticastFailureProtectionShowcase.b.bridging.streamCoder.decoder incomingPackets:count 10
scalar MulticastFailureProtectionShowcase.b.bridging.streamCoder.decoder incomingPacketLengths:sum 96000
scalar MulticastFailureProtectionShowcase.b.bridging.streamCoder.decoder flowIncomingPacketLengths:sum 0
scalar MulticastFailureProtectionShowcase.b.bridging.streamCoder.encoder outgoingPackets:count 10
scalar MulticastFailureProtectionShowcase.b.bridging.streamCoder.encoder outgoingPacketLengths:sum 96000
scalar MulticastFailureProtectionShowcase.b.bridging.streamCoder.encoder flowOutgoingPacketLengths:sum 0
scalar MulticastFailureProtectionShowcase.b.bridging.streamCoder.encoder incomingPackets:count 10
scalar MulticastFailureProtectionShowcase.b.bridging.streamCoder.encoder incomingPacketLengths:sum 96000
scalar MulticastFailureProtectionShowcase.b.bridging.streamCoder.encoder flowIncomingPacketLengths:sum 0
scalar MulticastFailureProtectionShowcase.b.bridging.interfaceRelay.learner outgoingPackets:count 10
scalar MulticastFailureProtectionShowcase.b.bridging.interfaceRelay.learner outgoingPacketLengths:sum 96000
scalar MulticastFailureProtectionShowcase.b.bridging.interfaceRelay.learner flowOutgoingPacketLengths:sum 0
scalar MulticastFailureProtectionShowcase.b.bridging.interfaceRelay.learner incomingPackets:count 10
scalar MulticastFailureProtectionShowcase.b.bridging.interfaceRelay.learner incomingPacketLengths:sum 96000
scalar MulticastFailureProtectionShowcase.b.bridging.interfaceRelay.learner flowIncomingPacketLengths:sum 0
scalar MulticastFailureProtectionShowcase.b.bridging.interfaceRelay.selector packetDropped:count 0
scalar MulticastFailureProtectionShowcase.b.bridging.interfaceRelay.selector packetDropped:sum(packetBytes) 0
scalar MulticastFailureProtectionShowcase.b.ethernet.macHeaderInserter outgoingPackets:count 20
scalar MulticastFailureProtectionShowcase.b.ethernet.macHeaderInserter outgoingPacketLengths:sum 195840
scalar MulticastFailureProtectionShowcase.b.ethernet.macHeaderInserter flowOutgoingPacketLengths:sum 0
scalar MulticastFailureProtectionShowcase.b.ethernet.macHeaderInserter incomingPackets:count 20
scalar MulticastFailureProtectionShowcase.b.ethernet.macHeaderInserter incomingPacketLengths:sum 193600
scalar MulticastFailureProtectionShowcase.b.ethernet.macHeaderInserter flowIncomingPacketLengths:sum 0
scalar MulticastFailureProtectionShowcase.b.ethernet.paddingInserter outgoingPackets:count 20
scalar MulticastFailureProtectionShowcase.b.ethernet.paddingInserter outgoingPacketLengths:sum 195840
scalar MulticastFailureProtectionShowcase.b.ethernet.paddingInserter flowOutgoingPacketLengths:sum 0
scalar MulticastFailureProtectionShowcase.b.ethernet.paddingInserter incomingPackets:count 20
scalar MulticastFailureProtectionShowcase.b.ethernet.paddingInserter incomingPacketLengths:sum 195840
scalar MulticastFailureProtectionShowcase.b.ethernet.paddingInserter flowIncomingPacketLengths:sum 0
scalar MulticastFailureProtectionShowcase.b.ethernet.fcsInserter outgoingPackets:count 20
scalar MulticastFailureProtectionShowcase.b.ethernet.fcsInserter outgoingPacketLengths:sum 196480
scalar MulticastFailureProtectionShowcase.b.ethernet.fcsInserter flowOutgoingPacketLengths:sum 0
scalar MulticastFailureProtectionShowcase.b.ethernet.fcsInserter incomingPackets:count 20
scalar MulticastFailureProtectionShowcase.b.ethernet.fcsInserter incomingPacketLengths:sum 195840
scalar MulticastFailureProtectionShowcase.b.ethernet.fcsInserter flowIncomingPacketLengths:sum 0
scalar MulticastFailureProtectionShowcase.b.ethernet.macHeaderChecker outgoingPackets:count 10
scalar MulticastFailureProtectionShowcase.b.ethernet.macHeaderChecker outgoingPacketLengths:sum 96800
scalar MulticastFailureProtectionShowcase.b.ethernet.macHeaderChecker flowOutgoingPacketLengths:sum 0
scalar MulticastFailureProtectionShowcase.b.ethernet.macHeaderChecker incomingPackets:count 10
scalar MulticastFailureProtectionShowcase.b.ethernet.macHeaderChecker incomingPacketLengths:sum 97920
scalar MulticastFailureProtectionShowcase.b.ethernet.macHeaderChecker flowIncomingPacketLengths:sum 0
scalar MulticastFailureProtectionShowcase.b.ethernet.macHeaderChecker droppedPackets:count 0
scalar MulticastFailureProtectionShowcase.b.ethernet.macHeaderChecker droppedPacketLengths:sum 0
scalar MulticastFailureProtectionShowcase.b.ethernet.macHeaderChecker flowDroppedPacketLengths:sum 0
scalar MulticastFailureProtectionShowcase.b.ethernet.fcsChecker outgoingPackets:count 10
scalar MulticastFailureProtectionShowcase.b.ethernet.fcsChecker outgoingPacketLengths:sum 97920
scalar MulticastFailureProtectionShowcase.b.ethernet.fcsChecker flowOutgoingPacketLengths:sum 0
scalar MulticastFailureProtectionShowcase.b.ethernet.fcsChecker incomingPackets:count 10
scalar MulticastFailureProtectionShowcase.b.ethernet.fcsChecker incomingPacketLengths:sum 98240
scalar MulticastFailureProtectionShowcase.b.ethernet.fcsChecker flowIncomingPacketLengths:sum 0
scalar MulticastFailureProtectionShowcase.b.ethernet.fcsChecker droppedPackets:count 0
scalar MulticastFailureProtectionShowcase.b.ethernet.fcsChecker droppedPacketLengths:sum 0
scalar MulticastFailureProtectionShowcase.b.ethernet.fcsChecker flowDroppedPacketLengths:sum 0
scalar MulticastFailureProtectionShowcase.b.ieee8021q.qTagHeaderInserter outgoingPackets:count 20
scalar MulticastFailureProtectionShowcase.b.ieee8021q.qTagHeaderInserter outgoingPacketLengths:sum 192640
scalar MulticastFailureProtectionShowcase.b.ieee8021q.qTagHeaderInserter flowOutgoingPacketLengths:sum 0
scalar MulticastFailureProtectionShowcase.b.ieee8021q.qTagHeaderInserter incomingPackets:count 20
scalar MulticastFailureProtectionShowcase.b.ieee8021q.qTagHeaderInserter incomingPacketLengths:sum 192000
scalar MulticastFailureProtectionShowcase.b.ieee8021q.qTagHeaderInserter flowIncomingPacketLengths:sum 0
scalar MulticastFailureProtectionShowcase.b.ieee8021q.qTagHeaderChecker outgoingPackets:count 10
scalar MulticastFailureProtectionShowcase.b.ieee8021q.qTagHeaderChecker outgoingPacketLengths:sum 96000
scalar MulticastFailureProtectionShowcase.b.ieee8021q.qTagHeaderChecker flowOutgoingPacketLengths:sum 0
scalar MulticastFailureProtectionShowcase.b.ieee8021q.qTagHeaderChecker incomingPackets:count 10
scalar MulticastFailureProtectionShowcase.b.ieee8021q.qTagHeaderChecker incomingPacketLengths:sum 96320
scalar MulticastFailureProtectionShowcase.b.ieee8021q.qTagHeaderChecker flowIncomingPacketLengths:sum 0
scalar MulticastFailureProtectionShowcase.b.ieee8021q.qTagHeaderChecker droppedPackets:count 0
scalar MulticastFailureProtectionShowcase.b.ieee8021q.qTagHeaderChecker droppedPacketLengths:sum 0
scalar MulticastFailureProtectionShowcase.b.ieee8021q.qTagHeaderChecker flowDroppedPacketLengths:sum 0
scalar MulticastFailureProtectionShowcase.b.ieee8021r.rTagHeaderInserter outgoingPackets:count 20
scalar MulticastFailureProtectionShowcase.b.ieee8021r.rTagHeaderInserter outgoingPacketLengths:sum 193600
scalar MulticastFailureProtectionShowcase.b.ieee8021r.rTagHeaderInserter flowOutgoingPacketLengths:sum 0
scalar MulticastFailureProtectionShowcase.b.ieee8021r.rTagHeaderInserter incomingPackets:count 20
scalar MulticastFailureProtectionShowcase.b.ieee8021r.rTagHeaderInserter incomingPacketLengths:sum 192640
scalar MulticastFailureProtectionShowcase.b.ieee8021r.rTagHeaderInserter flowIncomingPacketLengths:sum 0
scalar MulticastFailureProtectionShowcase.b.ieee8021r.rTagHeaderChecker outgoingPackets:count 10
scalar MulticastFailureProtectionShowcase.b.ieee8021r.rTagHeaderChecker outgoingPacketLengths:sum 96320
scalar MulticastFailureProtectionShowcase.b.ieee8021r.rTagHeaderChecker flowOutgoingPacketLengths:sum 0
scalar MulticastFailureProtectionShowcase.b.ieee8021r.rTagHeaderChecker incomingPackets:count 10
scalar MulticastFailureProtectionShowcase.b.ieee8021r.rTagHeaderChecker incomingPacketLengths:sum 96800
scalar MulticastFailureProtectionShowcase.b.ieee8021r.rTagHeaderChecker flowIncomingPacketLengths:sum 0
scalar MulticastFailureProtectionShowcase.b.ieee8021r.rTagHeaderChecker droppedPackets:count 0
scalar MulticastFailureProtectionShowcase.b.ieee8021r.rTagHeaderChecker droppedPacketLengths:sum 0
scalar MulticastFailureProtectionShowcase.b.ieee8021r.rTagHeaderChecker flowDroppedPacketLengths:sum 0
scalar MulticastFailureProtectionShowcase.b.eth[0].macLayer.queue queueLength:last 0
scalar MulticastFailureProtectionShowcase.b.eth[0].macLayer.queue queueLength:max 0
scalar MulticastFailureProtectionShowcase.b.eth[0].macLayer.queue queueLength:timeavg 0
scalar MulticastFailureProtectionShowcase.b.eth[0].macLayer.queue queueBitLength:last 0
scalar MulticastFailureProtectionShowcase.b.eth[0].macLayer.queue queueBitLength:max 0
scalar MulticastFailureProtectionShowcase.b.eth[0].macLayer.queue queueBitLength:timeavg 0
scalar MulticastFailureProtectionShowcase.b.eth[0].macLayer.queue outgoingPackets:count 0
scalar MulticastFailureProtectionShowcase.b.eth[0].macLayer.queue outgoingPacketLengths:sum 0
scalar MulticastFailureProtectionShowcase.b.eth[0].macLayer.queue incomingPackets:count 0
scalar MulticastFailureProtectionShowcase.b.eth[0].macLayer.queue incomingPacketLengths:sum 0
scalar MulticastFailureProtectionShowcase.b.eth[0].macLayer.queue droppedPacketsQueueOverflow:count 0
scalar MulticastFailureProtectionShowcase.b.eth[0].macLayer.queue droppedPacketLengthsQueueOverflow:sum 0
scalar MulticastFailureProtectionShowcase.b.eth[0].macLayer.server incomingPackets:count 0
scalar MulticastFailureProtectionShowcase.b.eth[0].macLayer.server incomingPacketLengths:sum 0
scalar MulticastFailureProtectionShowcase.b.eth[0].macLayer.server outgoingPackets:count 0
scalar MulticastFailureProtectionShowcase.b.eth[0].macLayer.server outgoingPacketLengths:sum 0
scalar MulticastFailureProtectionShowcase.b.eth[0].macLayer.outboundEmitter outgoingPackets:count 0
scalar MulticastFailureProtectionShowcase.b.eth[0].macLayer.outboundEmitter outgoingPacketLengths:sum 0
scalar MulticastFailureProtectionShowcase.b.eth[0].macLayer.outboundEmitter flowOutgoingPacketLengths:sum 0
scalar MulticastFailureProtectionShowcase.b.eth[0].macLayer.outboundEmitter incomingPackets:count 0
scalar MulticastFailureProtectionShowcase.b.eth[0].macLayer.outboundEmitter incomingPacketLengths:sum 0
scalar MulticastFailureProtectionShowcase.b.eth[0].macLayer.outboundEmitter flowIncomingPacketLengths:sum 0
scalar MulticastFailureProtectionShowcase.b.eth[0].macLayer.fcsChecker outgoingPackets:count 10
scalar MulticastFailureProtectionShowcase.b.eth[0].macLayer.fcsChecker outgoingPacketLengths:sum 98240
scalar MulticastFailureProtectionShowcase.b.eth[0].macLayer.fcsChecker flowOutgoingPacketLengths:sum 0
scalar MulticastFailureProtectionShowcase.b.eth[0].macLayer.fcsChecker incomingPackets:count 10
scalar MulticastFailureProtectionShowcase.b.eth[0].macLayer.fcsChecker incomingPacketLengths:sum 98240
scalar MulticastFailureProtectionShowcase.b.eth[0].macLayer.fcsChecker flowIncomingPacketLengths:sum 0
scalar MulticastFailureProtectionShowcase.b.eth[0].macLayer.fcsChecker droppedPackets:count 0
scalar MulticastFailureProtectionShowcase.b.eth[0].macLayer.fcsChecker droppedPacketLengths:sum 0
scalar MulticastFailureProtectionShowcase.b.eth[0].macLayer.fcsChecker flowDroppedPacketLengths:sum 0
scalar MulticastFailureProtectionShowcase.b.eth[0].macLayer.inboundEmitter outgoingPackets:count 10
scalar MulticastFailureProtectionShowcase.b.eth[0].macLayer.inboundEmitter outgoingPacketLengths:sum 98240
scalar MulticastFailureProtectionShowcase.b.eth[0].macLayer.inboundEmitter flowOutgoingPacketLengths:sum 0
scalar MulticastFailureProtectionShowcase.b.eth[0].macLayer.inboundEmitter incomingPackets:count 10
scalar MulticastFailureProtectionShowcase.b.eth[0].macLayer.inboundEmitter incomingPacketLengths:sum 98240
scalar MulticastFailureProtectionShowcase.b.eth[0].macLayer.inboundEmitter flowIncomingPacketLengths:sum 0
scalar MulticastFailureProtectionShowcase.b.eth[0].phyLayer.phyHeaderInserter outgoingPackets:count 0
scalar MulticastFailureProtectionShowcase.b.eth[0].phyLayer.phyHeaderInserter outgoingPacketLengths:sum 0
scalar MulticastFailureProtectionShowcase.b.eth[0].phyLayer.phyHeaderInserter flowOutgoingPacketLengths:sum 0
scalar MulticastFailureProtectionShowcase.b.eth[0].phyLayer.phyHeaderInserter incomingPackets:count 0
scalar MulticastFailureProtectionShowcase.b.eth[0].phyLayer.phyHeaderInserter incomingPacketLengths:sum 0
scalar MulticastFailureProtectionShowcase.b.eth[0].phyLayer.phyHeaderInserter flowIncomingPacketLengths:sum 0
scalar MulticastFailureProtectionShowcase.b.eth[0].phyLayer.outboundEmitter outgoingPackets:count 0
scalar MulticastFailureProtectionShowcase.b.eth[0].phyLayer.outboundEmitter outgoingPacketLengths:sum 0
scalar MulticastFailureProtectionShowcase.b.eth[0].phyLayer.outboundEmitter flowOutgoingPacketLengths:sum 0
scalar MulticastFailureProtectionShowcase.b.eth[0].phyLayer.outboundEmitter incomingPackets:count 0
scalar MulticastFailureProtectionShowcase.b.eth[0].phyLayer.outboundEmitter incomingPacketLengths:sum 0
scalar MulticastFailureProtectionShowcase.b.eth[0].phyLayer.outboundEmitter flowIncomingPacketLengths:sum 0
scalar MulticastFailureProtectionShowcase.b.eth[0].phyLayer.transmitter propagationTime 4.9999999999999998e-08
scalar MulticastFailureProtectionShowcase.b.eth[0].phyLayer.phyHeaderChecker outgoingPackets:count 10
scalar MulticastFailureProtectionShowcase.b.eth[0].phyLayer.phyHeaderChecker outgoingPacketLengths:sum 98240
scalar MulticastFailureProtectionShowcase.b.eth[0].phyLayer.phyHeaderChecker flowOutgoingPacketLengths:sum 0
scalar MulticastFailureProtectionShowcase.b.eth[0].phyLayer.phyHeaderChecker incomingPackets:count 10
scalar MulticastFailureProtectionShowcase.b.eth[0].phyLayer.phyHeaderChecker incomingPacketLengths:sum 98880
scalar MulticastFailureProtectionShowcase.b.eth[0].phyLayer.phyHeaderChecker flowIncomingPacketLengths:sum 0
scalar MulticastFailureProtectionShowcase.b.eth[0].phyLayer.phyHeaderChecker droppedPackets:count 0
scalar MulticastFailureProtectionShowcase.b.eth[0].phyLayer.phyHeaderChecker droppedPacketLengths:sum 0
scalar MulticastFailureProtectionShowcase.b.eth[0].phyLayer.phyHeaderChecker flowDroppedPacketLengths:sum 0
scalar MulticastFailureProtectionShowcase.b.eth[0].phyLayer.inboundEmitter outgoingPackets:count 10
scalar MulticastFailureProtectionShowcase.b.eth[0].phyLayer.inboundEmitter outgoingPacketLengths:sum 98880
scalar MulticastFailureProtectionShowcase.b.eth[0].phyLayer.inboundEmitter flowOutgoingPacketLengths:sum 0
scalar MulticastFailureProtectionShowcase.b.eth[0].phyLayer.inboundEmitter incomingPackets:count 10
scalar MulticastFailureProtectionShowcase.b.eth[0].phyLayer.inboundEmitter incomingPacketLengths:sum 98880
scalar MulticastFailureProtectionShowcase.b.eth[0].phyLayer.inboundEmitter flowIncomingPacketLengths:sum 0
scalar MulticastFailureProtectionShowcase.b.eth[0] packetDropInterfaceDown:count 0
scalar MulticastFailureProtectionShowcase.b.eth[0] packetDropInterfaceDown:sum(packetBytes) 0
scalar MulticastFailureProtectionShowcase.b.eth[0] packetDropNoCarrier:count 0
scalar MulticastFailureProtectionShowcase.b.eth[0] packetDropNoCarrier:sum(packetBytes) 0
scalar MulticastFailureProtectionShowcase.b.eth[1].macLayer.queue queueLength:last 0
scalar MulticastFailureProtectionShowcase.b.eth[1].macLayer.queue queueLength:max 1
scalar MulticastFailureProtectionShowcase.b.eth[1].macLayer.queue queueLength:timeavg 0
scalar MulticastFailureProtectionShowcase.b.eth[1].macLayer.queue queueBitLength:last 0
scalar MulticastFailureProtectionShowcase.b.eth[1].macLayer.queue queueBitLength:max 9824
scalar MulticastFailureProtectionShowcase.b.eth[1].macLayer.queue queueBitLength:timeavg 0
scalar MulticastFailureProtectionShowcase.b.eth[1].macLayer.queue outgoingPackets:count 10
scalar MulticastFailureProtectionShowcase.b.eth[1].macLayer.queue outgoingPacketLengths:sum 98240
scalar MulticastFailureProtectionShowcase.b.eth[1].macLayer.queue incomingPackets:count 10
scalar MulticastFailureProtectionShowcase.b.eth[1].macLayer.queue incomingPacketLengths:sum 98240
scalar MulticastFailureProtectionShowcase.b.eth[1].macLayer.queue droppedPacketsQueueOverflow:count 0
scalar MulticastFailureProtectionShowcase.b.eth[1].macLayer.queue droppedPacketLengthsQueueOverflow:sum 0
scalar MulticastFailureProtectionShowcase.b.eth[1].macLayer.server incomingPackets:count 10
scalar MulticastFailureProtectionShowcase.b.eth[1].macLayer.server incomingPacketLengths:sum 98240
scalar MulticastFailureProtectionShowcase.b.eth[1].macLayer.server outgoingPackets:count 10
scalar MulticastFailureProtectionShowcase.b.eth[1].macLayer.server outgoingPacketLengths:sum 98240
scalar MulticastFailureProtectionShowcase.b.eth[1].macLayer.outboundEmitter outgoingPackets:count 10
scalar MulticastFailureProtectionShowcase.b.eth[1].macLayer.outboundEmitter outgoingPacketLengths:sum 98240
scalar MulticastFailureProtectionShowcase.b.eth[1].macLayer.outboundEmitter flowOutgoingPacketLengths:sum 0
scalar MulticastFailureProtectionShowcase.b.eth[1].macLayer.outboundEmitter incomingPackets:count 10
scalar MulticastFailureProtectionShowcase.b.eth[1].macLayer.outboundEmitter incomingPacketLengths:sum 98240
scalar MulticastFailureProtectionShowcase.b.eth[1].macLayer.outboundEmitter flowIncomingPacketLengths:sum 0
scalar MulticastFailureProtectionShowcase.b.eth[1].macLayer.fcsChecker outgoingPackets:count 0
scalar MulticastFailureProtectionShowcase.b.eth[1].macLayer.fcsChecker outgoingPacketLengths:sum 0
scalar MulticastFailureProtectionShowcase.b.eth[1].macLayer.fcsChecker flowOutgoingPacketLengths:sum 0
scalar MulticastFailureProtectionShowcase.b.eth[1].macLayer.fcsChecker incomingPackets:count 0
scalar MulticastFailureProtectionShowcase.b.eth[1].macLayer.fcsChecker incomingPacketLengths:sum 0
scalar MulticastFailureProtectionShowcase.b.eth[1].macLayer.fcsChecker flowIncomingPacketLengths:sum 0
scalar MulticastFailureProtectionShowcase.b.eth[1].macLayer.fcsChecker droppedPackets:count 0
scalar MulticastFailureProtectionShowcase.b.eth[1].macLayer.fcsChecker droppedPacketLengths:sum 0
scalar MulticastFailureProtectionShowcase.b.eth[1].macLayer.fcsChecker flowDroppedPacketLengths:sum 0
scalar MulticastFailureProtectionShowcase.b.eth[1].macLayer.inboundEmitter outgoingPackets:count 0
scalar MulticastFailureProtectionShowcase.b.eth[1].macLayer.inboundEmitter outgoingPacketLengths:sum 0
scalar MulticastFailureProtectionShowcase.b.eth[1].macLayer.inboundEmitter flowOutgoingPacketLengths:sum 0
scalar MulticastFailureProtectionShowcase.b.eth[1].macLayer.inboundEmitter incomingPackets:count 0
scalar MulticastFailureProtectionShowcase.b.eth[1].macLayer.inboundEmitter incomingPacketLengths:sum 0
scalar MulticastFailureProtectionShowcase.b.eth[1].macLayer.inboundEmitter flowIncomingPacketLengths:sum 0
scalar MulticastFailureProtectionShowcase.b.eth[1].phyLayer.phyHeaderInserter outgoingPackets:count 10
scalar MulticastFailureProtectionShowcase.b.eth[1].phyLayer.phyHeaderInserter outgoingPacketLengths:sum 98880
scalar MulticastFailureProtectionShowcase.b.eth[1].phyLayer.phyHeaderInserter flowOutgoingPacketLengths:sum 0
scalar MulticastFailureProtectionShowcase.b.eth[1].phyLayer.phyHeaderInserter incomingPackets:count 10
scalar MulticastFailureProtectionShowcase.b.eth[1].phyLayer.phyHeaderInserter incomingPacketLengths:sum 98240
scalar MulticastFailureProtectionShowcase.b.eth[1].phyLayer.phyHeaderInserter flowIncomingPacketLengths:sum 0
scalar MulticastFailureProtectionShowcase.b.eth[1].phyLayer.outboundEmitter outgoingPackets:count 10
scalar MulticastFailureProtectionShowcase.b.eth[1].phyLayer.outboundEmitter outgoingPacketLengths:sum 98880
scalar MulticastFailureProtectionShowcase.b.eth[1].phyLayer.outboundEmitter flowOutgoingPacketLengths:sum 0
scalar MulticastFailureProtectionShowcase.b.eth[1].phyLayer.outboundEmitter incomingPackets:count 10
scalar MulticastFailureProtectionShowcase.b.eth[1].phyLayer.outboundEmitter incomingPacketLengths:sum 98880
scalar MulticastFailureProtectionShowcase.b.eth[1].phyLayer.outboundEmitter flowIncomingPacketLengths:sum 0
scalar MulticastFailureProtectionShowcase.b.eth[1].phyLayer.transmitter propagationTime 4.9999999999999998e-08
scalar MulticastFailureProtectionShowcase.b.eth[1].phyLayer.phyHeaderChecker outgoingPackets:count 0
scalar MulticastFailureProtectionShowcase.b.eth[1].phyLayer.phyHeaderChecker outgoingPacketLengths:sum 0
scalar MulticastFailureProtectionShowcase.b.eth[1].phyLayer.phyHeaderChecker flowOutgoingPacketLengths:sum 0
scalar MulticastFailureProtectionShowcase.b.eth[1].phyLayer.phyHeaderChecker incomingPackets:count 0
scalar MulticastFailureProtectionShowcase.b.eth[1].phyLayer.phyHeaderChecker incomingPacketLengths:sum 0
scalar MulticastFailureProtectionShowcase.b.eth[1].phyLayer.phyHeaderChecker flowIncomingPacketLengths:sum 0
scalar MulticastFailureProtectionShowcase.b.eth[1].phyLayer.phyHeaderChecker droppedPackets:count 0
scalar MulticastFailureProtectionShowcase.b.eth[1].phyLayer.phyHeaderChecker droppedPacketLengths:sum 0
scalar MulticastFailureProtectionShowcase.b.eth[1].phyLayer.phyHeaderChecker flowDroppedPacketLengths:sum 0
scalar MulticastFailureProtectionShowcase.b.eth[1].phyLayer.inboundEmitter outgoingPackets:count 0
scalar MulticastFailureProtectionShowcase.b.eth[1].phyLayer.inboundEmitter outgoingPacketLengths:sum 0
scalar MulticastFailureProtectionShowcase.b.eth[1].phyLayer.inboundEmitter flowOutgoingPacketLengths:sum 0
scalar MulticastFailureProtectionShowcase.b.eth[1].phyLayer.inboundEmitter incomingPackets:count 0
scalar MulticastFailureProtectionShowcase.b.eth[1].phyLayer.inboundEmitter incomingPacketLengths:sum 0
scalar MulticastFailureProtectionShowcase.b.eth[1].phyLayer.inboundEmitter flowIncomingPacketLengths:sum 0
scalar MulticastFailureProtectionShowcase.b.eth[1] packetDropInterfaceDown:count 0
scalar MulticastFailureProtectionShowcase.b.eth[1] packetDropInterfaceDown:sum(packetBytes) 0
scalar MulticastFailureProtectionShowcase.b.eth[1] packetDropNoCarrier:count 0
scalar MulticastFailureProtectionShowcase.b.eth[1] packetDropNoCarrier:sum(packetBytes) 0
scalar MulticastFailureProtectionShowcase.b.eth[2].macLayer.queue queueLength:last 0
scalar MulticastFailureProtectionShowcase.b.eth[2].macLayer.queue queueLength:max 1
scalar MulticastFailureProtectionShowcase.b.eth[2].macLayer.queue queueLength:timeavg 0
scalar MulticastFailureProtectionShowcase.b.eth[2].macLayer.queue queueBitLength:last 0
scalar MulticastFailureProtectionShowcase.b.eth[2].macLayer.queue queueBitLength:max 9824
scalar MulticastFailureProtectionShowcase.b.eth[2].macLayer.queue queueBitLength:timeavg 0
scalar MulticastFailureProtectionShowcase.b.eth[2].macLayer.queue outgoingPackets:count 10
scalar MulticastFailureProtectionShowcase.b.eth[2].macLayer.queue outgoingPacketLengths:sum 98240
scalar MulticastFailureProtectionShowcase.b.eth[2].macLayer.queue incomingPackets:count 10
scalar MulticastFailureProtectionShowcase.b.eth[2].macLayer.queue incomingPacketLengths:sum 98240
scalar MulticastFailureProtectionShowcase.b.eth[2].macLayer.queue droppedPacketsQueueOverflow:count 0
scalar MulticastFailureProtectionShowcase.b.eth[2].macLayer.queue droppedPacketLengthsQueueOverflow:sum 0
scalar MulticastFailureProtectionShowcase.b.eth[2].macLayer.server incomingPackets:count 10
scalar MulticastFailureProtectionShowcase.b.eth[2].macLayer.server incomingPacketLengths:sum 98240
scalar MulticastFailureProtectionShowcase.b.eth[2].macLayer.server outgoingPackets:count 10
scalar MulticastFailureProtectionShowcase.b.eth[2].macLayer.server outgoingPacketLengths:sum 98240
scalar MulticastFailureProtectionShowcase.b.eth[2].macLayer.outboundEmitter outgoingPackets:count 10
scalar MulticastFailureProtectionShowcase.b.eth[2].macLayer.outboundEmitter outgoingPacketLengths:sum 98240
scalar MulticastFailureProtectionShowcase.b.eth[2].macLayer.outboundEmitter flowOutgoingPacketLengths:sum 0
scalar MulticastFailureProtectionShowcase.b.eth[2].macLayer.outboundEmitter incomingPackets:count 10
scalar MulticastFailureProtectionShowcase.b.eth[2].macLayer.outboundEmitter incomingPacketLengths:sum 98240
scalar MulticastFailureProtectionShowcase.b.eth[2].macLayer.outboundEmitter flowIncomingPacketLengths:sum 0
scalar MulticastFailureProtectionShowcase.b.eth[2].macLayer.fcsChecker outgoingPackets:count 0
scalar MulticastFailureProtectionShowcase.b.eth[2].macLayer.fcsChecker outgoingPacketLengths:sum 0
scalar MulticastFailureProtectionShowcase.b.eth[2].macLayer.fcsChecker flowOutgoingPacketLengths:sum 0
scalar MulticastFailureProtectionShowcase.b.eth[2].macLayer.fcsChecker incomingPackets:count 0
scalar MulticastFailureProtectionShowcase.b.eth[2].macLayer.fcsChecker incomingPacketLengths:sum 0
scalar MulticastFailureProtectionShowcase.b.eth[2].macLayer.fcsChecker flowIncomingPacketLengths:sum 0
scalar MulticastFailureProtectionShowcase.b.eth[2].macLayer.fcsChecker droppedPackets:count 0
scalar MulticastFailureProtectionShowcase.b.eth[2].macLayer.fcsChecker droppedPacketLengths:sum 0
scalar MulticastFailureProtectionShowcase.b.eth[2].macLayer.fcsChecker flowDroppedPacketLengths:sum 0
scalar MulticastFailureProtectionShowcase.b.eth[2].macLayer.inboundEmitter outgoingPackets:count 0
scalar MulticastFailureProtectionShowcase.b.eth[2].macLayer.inboundEmitter outgoingPacketLengths:sum 0
scalar MulticastFailureProtectionShowcase.b.eth[2].macLayer.inboundEmitter flowOutgoingPacketLengths:sum 0
scalar MulticastFailureProtectionShowcase.b.eth[2].macLayer.inboundEmitter incomingPackets:count 0
scalar MulticastFailureProtectionShowcase.b.eth[2].macLayer.inboundEmitter incomingPacketLengths:sum 0
scalar MulticastFailureProtectionShowcase.b.eth[2].macLayer.inboundEmitter flowIncomingPacketLengths:sum 0
scalar MulticastFailureProtectionShowcase.b.eth[2].phyLayer.phyHeaderInserter outgoingPackets:count 10
scalar MulticastFailureProtectionShowcase.b.eth[2].phyLayer.phyHeaderInserter outgoingPacketLengths:sum 98880
scalar MulticastFailureProtectionShowcase.b.eth[2].phyLayer.phyHeaderInserter flowOutgoingPacketLengths:sum 0
scalar MulticastFailureProtectionShowcase.b.eth[2].phyLayer.phyHeaderInserter incomingPackets:count 10
scalar MulticastFailureProtectionShowcase.b.eth[2].phyLayer.phyHeaderInserter incomingPacketLengths:sum 98240
scalar MulticastFailureProtectionShowcase.b.eth[2].phyLayer.phyHeaderInserter flowIncomingPacketLengths:sum 0
scalar MulticastFailureProtectionShowcase.b.eth[2].phyLayer.outboundEmitter outgoingPackets:count 10
scalar MulticastFailureProtectionShowcase.b.eth[2].phyLayer.outboundEmitter outgoingPacketLengths:sum 98880
scalar MulticastFailureProtectionShowcase.b.eth[2].phyLayer.outboundEmitter flowOutgoingPacketLengths:sum 0
scalar MulticastFailureProtectionShowcase.b.eth[2].phyLayer.outboundEmitter incomingPackets:count 10
scalar MulticastFailureProtectionShowcase.b.eth[2].phyLayer.outboundEmitter incomingPacketLengths:sum 98880
scalar MulticastFailureProtectionShowcase.b.eth[2].phyLayer.outboundEmitter flowIncomingPacketLengths:sum 0
scalar MulticastFailureProtectionShowcase.b.eth[2].phyLayer.transmitter propagationTime 4.9999999999999998e-08
scalar MulticastFailureProtectionShowcase.b.eth[2].phyLayer.phyHeaderChecker outgoingPackets:count 0
scalar MulticastFailureProtectionShowcase.b.eth[2].phyLayer.phyHeaderChecker outgoingPacketLengths:sum 0
scalar MulticastFailureProtectionShowcase.b.eth[2].phyLayer.phyHeaderChecker flowOutgoingPacketLengths:sum 0
scalar MulticastFailureProtectionShowcase.b.eth[2].phyLayer.phyHeaderChecker incomingPackets:count 0
scalar MulticastFailureProtectionShowcase.b.eth[2].phyLayer.phyHeaderChecker incomingPacketLengths:sum 0
scalar MulticastFailureProtectionShowcase.b.eth[2].phyLayer.phyHeaderChecker flowIncomingPacketLengths:sum 0
scalar MulticastFailureProtectionShowcase.b.eth[2].phyLayer.phyHeaderChecker droppedPackets:count 0
scalar MulticastFailureProtectionShowcase.b.eth[2].phyLayer.phyHeaderChecker droppedPacketLengths:sum 0
scalar MulticastFailureProtectionShowcase.b.eth[2].phyLayer.phyHeaderChecker flowDroppedPacketLengths:sum 0
scalar MulticastFailureProtectionShowcase.b.eth[2].phyLayer.inboundEmitter outgoingPackets:count 0
scalar MulticastFailureProtectionShowcase.b.eth[2].phyLayer.inboundEmitter outgoingPacketLengths:sum 0
scalar MulticastFailureProtectionShowcase.b.eth[2].phyLayer.inboundEmitter flowOutgoingPacketLengths:sum 0
scalar MulticastFailureProtectionShowcase.b.eth[2].phyLayer.inboundEmitter incomingPackets:count 0
scalar MulticastFailureProtectionShowcase.b.eth[2].phyLayer.inboundEmitter incomingPacketLengths:sum 0
scalar MulticastFailureProtectionShowcase.b.eth[2].phyLayer.inboundEmitter flowIncomingPacketLengths:sum 0
scalar MulticastFailureProtectionShowcase.b.eth[2] packetDropInterfaceDown:count 0
scalar MulticastFailureProtectionShowcase.b.eth[2] packetDropInterfaceDown:sum(packetBytes) 0
scalar MulticastFailureProtectionShowcase.b.eth[2] packetDropNoCarrier:count 0
scalar MulticastFailureProtectionShowcase.b.eth[2] packetDropNoCarrier:sum(packetBytes) 0
scalar MulticastFailureProtectionShowcase.d.bridging.directionReverser.reverser outgoingPackets:count 10
scalar MulticastFailureProtectionShowcase.d.bridging.directionReverser.reverser outgoingPacketLengths:sum 96000
scalar MulticastFailureProtectionShowcase.d.bridging.directionReverser.reverser flowOutgoingPacketLengths:sum 0
scalar MulticastFailureProtectionShowcase.d.bridging.directionReverser.reverser incomingPackets:count 10
scalar MulticastFailureProtectionShowcase.d.bridging.directionReverser.reverser incomingPacketLengths:sum 96000
scalar MulticastFailureProtectionShowcase.d.bridging.directionReverser.reverser flowIncomingPacketLengths:sum 0
scalar MulticastFailureProtectionShowcase.d.bridging.directionReverser.join packets:count 0
scalar MulticastFailureProtectionShowcase.d.bridging.directionReverser.join packetLengths:sum 0
scalar MulticastFailureProtectionShowcase.d.bridging.streamIdentifier.identifier outgoingPackets:count 10
scalar MulticastFailureProtectionShowcase.d.bridging.streamIdentifier.identifier outgoingPacketLengths:sum 96000
scalar MulticastFailureProtectionShowcase.d.bridging.streamIdentifier.identifier flowOutgoingPacketLengths:sum 0
scalar MulticastFailureProtectionShowcase.d.bridging.streamIdentifier.identifier incomingPackets:count 10
scalar MulticastFailureProtectionShowcase.d.bridging.streamIdentifier.identifier incomingPacketLengths:sum 96000
scalar MulticastFailureProtectionShowcase.d.bridging.streamIdentifier.identifier flowIncomingPacketLengths:sum 0
scalar MulticastFailureProtectionShowcase.d.bridging.streamRelay.merger outgoingPackets:count 10
scalar MulticastFailureProtectionShowcase.d.bridging.streamRelay.merger outgoingPacketLengths:sum 96000
scalar MulticastFailureProtectionShowcase.d.bridging.streamRelay.merger flowOutgoingPacketLengths:sum 0
scalar MulticastFailureProtectionShowcase.d.bridging.streamRelay.merger incomingPackets:count 10
scalar MulticastFailureProtectionShowcase.d.bridging.streamRelay.merger incomingPacketLengths:sum 96000
scalar MulticastFailureProtectionShowcase.d.bridging.streamRelay.merger flowIncomingPacketLengths:sum 0
scalar MulticastFailureProtectionShowcase.d.bridging.streamRelay.merger droppedPackets:count 0
scalar MulticastFailureProtectionShowcase.d.bridging.streamRelay.merger droppedPacketLengths:sum 0
scalar MulticastFailureProtectionShowcase.d.bridging.streamRelay.merger flowDroppedPacketLengths:sum 0
scalar MulticastFailureProtectionShowcase.d.bridging.streamCoder.decoder outgoingPackets:count 10
scalar MulticastFailureProtectionShowcase.d.bridging.streamCoder.decoder outgoingPacketLengths:sum 96000
scalar MulticastFailureProtectionShowcase.d.bridging.streamCoder.decoder flowOutgoingPacketLengths:sum 0
scalar MulticastFailureProtectionShowcase.d.bridging.streamCoder.decoder incomingPackets:count 10
scalar MulticastFailureProtectionShowcase.d.bridging.streamCoder.decoder incomingPacketLengths:sum 96000
scalar MulticastFailureProtectionShowcase.d.bridging.streamCoder.decoder flowIncomingPacketLengths:sum 0
scalar MulticastFailureProtectionShowcase.d.bridging.streamCoder.encoder outgoingPackets:count 10
scalar MulticastFailureProtectionShowcase.d.bridging.streamCoder.encoder outgoingPacketLengths:sum 96000
scalar MulticastFailureProtectionShowcase.d.bridging.streamCoder.encoder flowOutgoingPacketLengths:sum 0
scalar MulticastFailureProtectionShowcase.d.bridging.streamCoder.encoder incomingPackets:count 10
scalar MulticastFailureProtectionShowcase.d.bridging.streamCoder.encoder incomingPacketLengths:sum 96000
scalar MulticastFailureProtectionShowcase.d.bridging.streamCoder.encoder flowIncomingPacketLengths:sum 0
scalar MulticastFailureProtectionShowcase.d.bridging.interfaceRelay.learner outgoingPackets:count 10
scalar MulticastFailureProtectionShowcase.d.bridging.interfaceRelay.learner outgoingPacketLengths:sum 96000
scalar MulticastFailureProtectionShowcase.d.bridging.interfaceRelay.learner flowOutgoingPacketLengths:sum 0
scalar MulticastFailureProtectionShowcase.d.bridging.interfaceRelay.learner incomingPackets:count 10
scalar MulticastFailureProtectionShowcase.d.bridging.interfaceRelay.learner incomingPacketLengths:sum 96000
scalar MulticastFailureProtectionShowcase.d.bridging.interfaceRelay.learner flowIncomingPacketLengths:sum 0
scalar MulticastFailureProtectionShowcase.d.bridging.interfaceRelay.selector packetDropped:count 0
scalar MulticastFailureProtectionShowcase.d.bridging.interfaceRelay.selector packetDropped:sum(packetBytes) 0
scalar MulticastFailureProtectionShowcase.d.ethernet.macHeaderInserter outgoingPackets:count 10
scalar MulticastFailureProtectionShowcase.d.ethernet.macHeaderInserter outgoingPacketLengths:sum 97920
scalar MulticastFailureProtectionShowcase.d.ethernet.macHeaderInserter flowOutgoingPacketLengths:sum 0
scalar MulticastFailureProtectionShowcase.d.ethernet.macHeaderInserter incomingPackets:count 10
scalar MulticastFailureProtectionShowcase.d.ethernet.macHeaderInserter incomingPacketLengths:sum 96800
scalar MulticastFailureProtectionShowcase.d.ethernet.macHeaderInserter flowIncomingPacketLengths:sum 0
scalar MulticastFailureProtectionShowcase.d.ethernet.paddingInserter outgoingPackets:count 10
scalar MulticastFailureProtectionShowcase.d.ethernet.paddingInserter outgoingPacketLengths:sum 97920
scalar MulticastFailureProtectionShowcase.d.ethernet.paddingInserter flowOutgoingPacketLengths:sum 0
scalar MulticastFailureProtectionShowcase.d.ethernet.paddingInserter incomingPackets:count 10
scalar MulticastFailureProtectionShowcase.d.ethernet.paddingInserter incomingPacketLengths:sum 97920
scalar MulticastFailureProtectionShowcase.d.ethernet.paddingInserter flowIncomingPacketLengths:sum 0
scalar MulticastFailureProtectionShowcase.d.ethernet.fcsInserter outgoingPackets:count 10
scalar MulticastFailureProtectionShowcase.d.ethernet.fcsInserter outgoingPacketLengths:sum 98240
scalar MulticastFailureProtectionShowcase.d.ethernet.fcsInserter flowOutgoingPacketLengths:sum 0
scalar MulticastFailureProtectionShowcase.d.ethernet.fcsInserter incomingPackets:count 10
scalar MulticastFailureProtectionShowcase.d.ethernet.fcsInserter incomingPacketLengths:sum 97920
scalar MulticastFailureProtectionShowcase.d.ethernet.fcsInserter flowIncomingPacketLengths:sum 0
scalar MulticastFailureProtectionShowcase.d.ethernet.macHeaderChecker outgoingPackets:count 10
scalar MulticastFailureProtectionShowcase.d.ethernet.macHeaderChecker outgoingPacketLengths:sum 96800
scalar MulticastFailureProtectionShowcase.d.ethernet.macHeaderChecker flowOutgoingPacketLengths:sum 0
scalar MulticastFailureProtectionShowcase.d.ethernet.macHeaderChecker incomingPackets:count 10
scalar MulticastFailureProtectionShowcase.d.ethernet.macHeaderChecker incomingPacketLengths:sum 97920
scalar MulticastFailureProtectionShowcase.d.ethernet.macHeaderChecker flowIncomingPacketLengths:sum 0
scalar MulticastFailureProtectionShowcase.d.ethernet.macHeaderChecker droppedPackets:count 0
scalar MulticastFailureProtectionShowcase.d.ethernet.macHeaderChecker droppedPacketLengths:sum 0
scalar MulticastFailureProtectionShowcase.d.ethernet.macHeaderChecker flowDroppedPacketLengths:sum 0
scalar MulticastFailureProtectionShowcase.d.ethernet.fcsChecker outgoingPackets:count 10
scalar MulticastFailureProtectionShowcase.d.ethernet.fcsChecker outgoingPacketLengths:sum 97920
scalar MulticastFailureProtectionShowcase.d.ethernet.fcsChecker flowOutgoingPacketLengths:sum 0
scalar MulticastFailureProtectionShowcase.d.ethernet.fcsChecker incomingPackets:count 10
scalar MulticastFailureProtectionShowcase.d.ethernet.fcsChecker incomingPacketLengths:sum 98240
scalar MulticastFailureProtectionShowcase.d.ethernet.fcsChecker flowIncomingPacketLengths:sum 0
scalar MulticastFailureProtectionShowcase.d.ethernet.fcsChecker droppedPackets:count 0
scalar MulticastFailureProtectionShowcase.d.ethernet.fcsChecker droppedPacketLengths:sum 0
scalar MulticastFailureProtectionShowcase.d.ethernet.fcsChecker flowDroppedPacketLengths:sum 0
scalar MulticastFailureProtectionShowcase.d.ieee8021q.qTagHeaderInserter outgoingPackets:count 10
scalar MulticastFailureProtectionShowcase.d.ieee8021q.qTagHeaderInserter outgoingPacketLengths:sum 96320
scalar MulticastFailureProtectionShowcase.d.ieee8021q.qTagHeaderInserter flowOutgoingPacketLengths:sum 0
scalar MulticastFailureProtectionShowcase.d.ieee8021q.qTagHeaderInserter incomingPackets:count 10
scalar MulticastFailureProtectionShowcase.d.ieee8021q.qTagHeaderInserter incomingPacketLengths:sum 96000
scalar MulticastFailureProtectionShowcase.d.ieee8021q.qTagHeaderInserter flowIncomingPacketLengths:sum 0
scalar MulticastFailureProtectionShowcase.d.ieee8021q.qTagHeaderChecker outgoingPackets:count 10
scalar MulticastFailureProtectionShowcase.d.ieee8021q.qTagHeaderChecker outgoingPacketLengths:sum 96000
scalar MulticastFailureProtectionShowcase.d.ieee8021q.qTagHeaderChecker flowOutgoingPacketLengths:sum 0
scalar MulticastFailureProtectionShowcase.d.ieee8021q.qTagHeaderChecker incomingPackets:count 10
scalar MulticastFailureProtectionShowcase.d.ieee8021q.qTagHeaderChecker incomingPacketLengths:sum 96320
scalar MulticastFailureProtectionShowcase.d.ieee8021q.qTagHeaderChecker flowIncomingPacketLengths:sum 0
scalar MulticastFailureProtectionShowcase.d.ieee8021q.qTagHeaderChecker droppedPackets:count 0
scalar MulticastFailureProtectionShowcase.d.ieee8021q.qTagHeaderChecker droppedPacketLengths:sum 0
scalar MulticastFailureProtectionShowcase.d.ieee8021q.qTagHeaderChecker flowDroppedPacketLengths:sum 0
scalar MulticastFailureProtectionShowcase.d.ieee8021r.rTagHeaderInserter outgoingPackets:count 10
scalar MulticastFailureProtectionShowcase.d.ieee8021r.rTagHeaderInserter outgoingPacketLengths:sum 96800
scalar MulticastFailureProtectionShowcase.d.ieee8021r.rTagHeaderInserter flowOutgoingPacketLengths:sum 0
scalar MulticastFailureProtectionShowcase.d.ieee8021r.rTagHeaderInserter incomingPackets:count 10
scalar MulticastFailureProtectionShowcase.d.ieee8021r.rTagHeaderInserter incomingPacketLengths:sum 96320
scalar MulticastFailureProtectionShowcase.d.ieee8021r.rTagHeaderInserter flowIncomingPacketLengths:sum 0
scalar MulticastFailureProtectionShowcase.d.ieee8021r.rTagHeaderChecker outgoingPackets:count 10
scalar MulticastFailureProtectionShowcase.d.ieee8021r.rTagHeaderChecker outgoingPacketLengths:sum 96320
scalar MulticastFailureProtectionShowcase.d.ieee8021r.rTagHeaderChecker flowOutgoingPacketLengths:sum 0
scalar MulticastFailureProtectionShowcase.d.ieee8021r.rTagHeaderChecker incomingPackets:count 10
scalar MulticastFailureProtectionShowcase.d.ieee8021r.rTagHeaderChecker incomingPacketLengths:sum 96800
scalar MulticastFailureProtectionShowcase.d.ieee8021r.rTagHeaderChecker flowIncomingPacketLengths:sum 0
scalar MulticastFailureProtectionShowcase.d.ieee8021r.rTagHeaderChecker droppedPackets:count 0
scalar MulticastFailureProtectionShowcase.d.ieee8021r.rTagHeaderChecker droppedPacketLengths:sum 0
scalar MulticastFailureProtectionShowcase.d.ieee8021r.rTagHeaderChecker flowDroppedPacketLengths:sum 0
scalar MulticastFailureProtectionShowcase.d.eth[0].macLayer.queue queueLength:last 0
scalar MulticastFailureProtectionShowcase.d.eth[0].macLayer.queue queueLength:max 0
scalar MulticastFailureProtectionShowcase.d.eth[0].macLayer.queue queueLength:timeavg 0
scalar MulticastFailureProtectionShowcase.d.eth[0].macLayer.queue queueBitLength:last 0
scalar MulticastFailureProtectionShowcase.d.eth[0].macLayer.queue queueBitLength:max 0
scalar MulticastFailureProtectionShowcase.d.eth[0].macLayer.queue queueBitLength:timeavg 0
scalar MulticastFailureProtectionShowcase.d.eth[0].macLayer.queue outgoingPackets:count 0
scalar MulticastFailureProtectionShowcase.d.eth[0].macLayer.queue outgoingPacketLengths:sum 0
scalar MulticastFailureProtectionShowcase.d.eth[0].macLayer.queue incomingPackets:count 0
scalar MulticastFailureProtectionShowcase.d.eth[0].macLayer.queue incomingPacketLengths:sum 0
scalar MulticastFailureProtectionShowcase.d.eth[0].macLayer.queue droppedPacketsQueueOverflow:count 0
scalar MulticastFailureProtectionShowcase.d.eth[0].macLayer.queue droppedPacketLengthsQueueOverflow:sum 0
scalar MulticastFailureProtectionShowcase.d.eth[0].macLayer.server incomingPackets:count 0
scalar MulticastFailureProtectionShowcase.d.eth[0].macLayer.server incomingPacketLengths:sum 0
scalar MulticastFailureProtectionShowcase.d.eth[0].macLayer.server outgoingPackets:count 0
scalar MulticastFailureProtectionShowcase.d.eth[0].macLayer.server outgoingPacketLengths:sum 0
scalar MulticastFailureProtectionShowcase.d.eth[0].macLayer.outboundEmitter outgoingPackets:count 0
scalar MulticastFailureProtectionShowcase.d.eth[0].macLayer.outboundEmitter outgoingPacketLengths:sum 0
scalar MulticastFailureProtectionShowcase.d.eth[0].macLayer.outboundEmitter flowOutgoingPacketLengths:sum 0
scalar MulticastFailureProtectionShowcase.d.eth[0].macLayer.outboundEmitter incomingPackets:count 0
scalar MulticastFailureProtectionShowcase.d.eth[0].macLayer.outboundEmitter incomingPacketLengths:sum 0
scalar MulticastFailureProtectionShowcase.d.eth[0].macLayer.outboundEmitter flowIncomingPacketLengths:sum 0
scalar MulticastFailureProtectionShowcase.d.eth[0].macLayer.fcsChecker outgoingPackets:count 10
scalar MulticastFailureProtectionShowcase.d.eth[0].macLayer.fcsChecker outgoingPacketLengths:sum 98240
scalar MulticastFailureProtectionShowcase.d.eth[0].macLayer.fcsChecker flowOutgoingPacketLengths:sum 0
scalar MulticastFailureProtectionShowcase.d.eth[0].macLayer.fcsChecker incomingPackets:count 10
scalar MulticastFailureProtectionShowcase.d.eth[0].macLayer.fcsChecker incomingPacketLengths:sum 98240
scalar MulticastFailureProtectionShowcase.d.eth[0].macLayer.fcsChecker flowIncomingPacketLengths:sum 0
scalar MulticastFailureProtectionShowcase.d.eth[0].macLayer.fcsChecker droppedPackets:count 0
scalar MulticastFailureProtectionShowcase.d.eth[0].macLayer.fcsChecker droppedPacketLengths:sum 0
scalar MulticastFailureProtectionShowcase.d.eth[0].macLayer.fcsChecker flowDroppedPacketLengths:sum 0
scalar MulticastFailureProtectionShowcase.d.eth[0].macLayer.inboundEmitter outgoingPackets:count 10
scalar MulticastFailureProtectionShowcase.d.eth[0].macLayer.inboundEmitter outgoingPacketLengths:sum 98240
scalar MulticastFailureProtectionShowcase.d.eth[0].macLayer.inboundEmitter flowOutgoingPacketLengths:sum 0
scalar MulticastFailureProtectionShowcase.d.eth[0].macLayer.inboundEmitter incomingPackets:count 10
scalar MulticastFailureProtectionShowcase.d.eth[0].macLayer.inboundEmitter incomingPacketLengths:sum 98240
scalar MulticastFailureProtectionShowcase.d.eth[0].macLayer.inboundEmitter flowIncomingPacketLengths:sum 0
scalar MulticastFailureProtectionShowcase.d.eth[0].phyLayer.phyHeaderInserter outgoingPackets:count 0
scalar MulticastFailureProtectionShowcase.d.eth[0].phyLayer.phyHeaderInserter outgoingPacketLengths:sum 0
scalar MulticastFailureProtectionShowcase.d.eth[0].phyLayer.phyHeaderInserter flowOutgoingPacketLengths:sum 0
scalar MulticastFailureProtectionShowcase.d.eth[0].phyLayer.phyHeaderInserter incomingPackets:count 0
scalar MulticastFailureProtectionShowcase.d.eth[0].phyLayer.phyHeaderInserter incomingPacketLengths:sum 0
scalar MulticastFailureProtectionShowcase.d.eth[0].phyLayer.phyHeaderInserter flowIncomingPacketLengths:sum 0
scalar MulticastFailureProtectionShowcase.d.eth[0].phyLayer.outboundEmitter outgoingPackets:count 0
scalar MulticastFailureProtectionShowcase.d.eth[0].phyLayer.outboundEmitter outgoingPacketLengths:sum 0
scalar MulticastFailureProtectionShowcase.d.eth[0].phyLayer.outboundEmitter flowOutgoingPacketLengths:sum 0
scalar MulticastFailureProtectionShowcase.d.eth[0].phyLayer.outboundEmitter incomingPackets:count 0
scalar MulticastFailureProtectionShowcase.d.eth[0].phyLayer.outboundEmitter incomingPacketLengths:sum 0
scalar MulticastFailureProtectionShowcase.d.eth[0].phyLayer.outboundEmitter flowIncomingPacketLengths:sum 0
scalar MulticastFailureProtectionShowcase.d.eth[0].phyLayer.transmitter propagationTime 4.9999999999999998e-08
scalar MulticastFailureProtectionShowcase.d.eth[0].phyLayer.phyHeaderChecker outgoingPackets:count 10
scalar MulticastFailureProtectionShowcase.d.eth[0].phyLayer.phyHeaderChecker outgoingPacketLengths:sum 98240
scalar MulticastFailureProtectionShowcase.d.eth[0].phyLayer.phyHeaderChecker flowOutgoingPacketLengths:sum 0
scalar MulticastFailureProtectionShowcase.d.eth[0].phyLayer.phyHeaderChecker incomingPackets:count 10
scalar MulticastFailureProtectionShowcase.d.eth[0].phyLayer.phyHeaderChecker incomingPacketLengths:sum 98880
scalar MulticastFailureProtectionShowcase.d.eth[0].phyLayer.phyHeaderChecker flowIncomingPacketLengths:sum 0
scalar MulticastFailureProtectionShowcase.d.eth[0].phyLayer.phyHeaderChecker droppedPackets:count 0
scalar MulticastFailureProtectionShowcase.d.eth[0].phyLayer.phyHeaderChecker droppedPacketLengths:sum 0
scalar MulticastFailureProtectionShowcase.d.eth[0].phyLayer.phyHeaderChecker flowDroppedPacketLengths:sum 0
scalar MulticastFailureProtectionShowcase.d.eth[0].phyLayer.inboundEmitter outgoingPackets:count 10
scalar MulticastFailureProtectionShowcase.d.eth[0].phyLayer.inboundEmitter outgoingPacketLengths:sum 98880
scalar MulticastFailureProtectionShowcase.d.eth[0].phyLayer.inboundEmitter flowOutgoingPacketLengths:sum 0
scalar MulticastFailureProtectionShowcase.d.eth[0].phyLayer.inboundEmitter incomingPackets:count 10
scalar MulticastFailureProtectionShowcase.d.eth[0].phyLayer.inboundEmitter incomingPacketLengths:sum 98880
scalar MulticastFailureProtectionShowcase.d.eth[0].phyLayer.inboundEmitter flowIncomingPacketLengths:sum 0
scalar MulticastFailureProtectionShowcase.d.eth[0] packetDropInterfaceDown:count 0
scalar MulticastFailureProtectionShowcase.d.eth[0] packetDropInterfaceDown:sum(packetBytes) 0
scalar MulticastFailureProtectionShowcase.d.eth[0] packetDropNoCarrier:count 0
scalar MulticastFailureProtectionShowcase.d.eth[0] packetDropNoCarrier:sum(packetBytes) 0
scalar MulticastFailureProtectionShowcase.d.eth[1].macLayer.queue queueLength:last 0
scalar MulticastFailureProtectionShowcase.d.eth[1].macLayer.queue queueLength:max 1
scalar MulticastFailureProtectionShowcase.d.eth[1].macLayer.queue queueLength:timeavg 0
scalar MulticastFailureProtectionShowcase.d.eth[1].macLayer.queue queueBitLength:last 0
scalar MulticastFailureProtectionShowcase.d.eth[1].macLayer.queue queueBitLength:max 9824
scalar MulticastFailureProtectionShowcase.d.eth[1].macLayer.queue queueBitLength:timeavg 0
scalar MulticastFailureProtectionShowcase.d.eth[1].macLayer.queue outgoingPackets:count 10
scalar MulticastFailureProtectionShowcase.d.eth[1].macLayer.queue outgoingPacketLengths:sum 98240
scalar MulticastFailureProtectionShowcase.d.eth[1].macLayer.queue incomingPackets:count 10
scalar MulticastFailureProtectionShowcase.d.eth[1].macLayer.queue incomingPacketLengths:sum 98240
scalar MulticastFailureProtectionShowcase.d.eth[1].macLayer.queue droppedPacketsQueueOverflow:count 0
scalar MulticastFailureProtectionShowcase.d.eth[1].macLayer.queue droppedPacketLengthsQueueOverflow:sum 0
scalar MulticastFailureProtectionShowcase.d.eth[1].macLayer.server incomingPackets:count 10
scalar MulticastFailureProtectionShowcase.d.eth[1].macLayer.server incomingPacketLengths:sum 98240
scalar MulticastFailureProtectionShowcase.d.eth[1].macLayer.server outgoingPackets:count 10
scalar MulticastFailureProtectionShowcase.d.eth[1].macLayer.server outgoingPacketLengths:sum 98240
scalar MulticastFailureProtectionShowcase.d.eth[1].macLayer.outboundEmitter outgoingPackets:count 10
scalar MulticastFailureProtectionShowcase.d.eth[1].macLayer.outboundEmitter outgoingPacketLengths:sum 98240
scalar MulticastFailureProtectionShowcase.d.eth[1].macLayer.outboundEmitter flowOutgoingPacketLengths:sum 0
scalar MulticastFailureProtectionShowcase.d.eth[1].macLayer.outboundEmitter incomingPackets:count 10
scalar MulticastFailureProtectionShowcase.d.eth[1].macLayer.outboundEmitter incomingPacketLengths:sum 98240
scalar MulticastFailureProtectionShowcase.d.eth[1].macLayer.outboundEmitter flowIncomingPacketLengths:sum 0
[...]
scalar MulticastFailureProtectionShowcase.f.eth[1].phyLayer.phyHeaderChecker droppedDataRate:vector:mean 0
scalar MulticastFailureProtectionShowcase.f.eth[1].phyLayer.phyHeaderChecker droppedDataRate:vector:stddev nan
scalar MulticastFailureProtectionShowcase.f.eth[1].phyLayer.phyHeaderChecker droppedDataRate:vector:min 0
scalar MulticastFailureProtectionShowcase.f.eth[1].phyLayer.phyHeaderChecker droppedDataRate:vector:max 0
scalar MulticastFailureProtectionShowcase.f.eth[1].phyLayer.phyHeaderChecker droppedDataRate:vector:starttime 0.01
scalar MulticastFailureProtectionShowcase.f.eth[1].phyLayer.phyHeaderChecker droppedDataRate:vector:endtime 0.01
scalar MulticastFailureProtectionShowcase.f.eth[1].phyLayer.phyHeaderChecker flowIncomingPacketLengths:vector:count 0
scalar MulticastFailureProtectionShowcase.f.eth[1].phyLayer.phyHeaderChecker flowIncomingPacketLengths:vector:sum 0
scalar MulticastFailureProtectionShowcase.f.eth[1].phyLayer.phyHeaderChecker flowIncomingPacketLengths:vector:sumweights 0
scalar MulticastFailureProtectionShowcase.f.eth[1].phyLayer.phyHeaderChecker flowIncomingPacketLengths:vector:mean -nan
scalar MulticastFailureProtectionShowcase.f.eth[1].phyLayer.phyHeaderChecker flowIncomingPacketLengths:vector:stddev nan
scalar MulticastFailureProtectionShowcase.f.eth[1].phyLayer.phyHeaderChecker flowIncomingPacketLengths:vector:min inf
scalar MulticastFailureProtectionShowcase.f.eth[1].phyLayer.phyHeaderChecker flowIncomingPacketLengths:vector:max -inf
scalar MulticastFailureProtectionShowcase.f.eth[1].phyLayer.phyHeaderChecker flowIncomingPacketLengths:vector:starttime nan
scalar MulticastFailureProtectionShowcase.f.eth[1].phyLayer.phyHeaderChecker flowIncomingPacketLengths:vector:endtime nan
scalar MulticastFailureProtectionShowcase.f.eth[1].phyLayer.phyHeaderChecker flowIncomingDataRate:vector:count 1
scalar MulticastFailureProtectionShowcase.f.eth[1].phyLayer.phyHeaderChecker flowIncomingDataRate:vector:sum 0
scalar MulticastFailureProtectionShowcase.f.eth[1].phyLayer.phyHeaderChecker flowIncomingDataRate:vector:sumweights 1
scalar MulticastFailureProtectionShowcase.f.eth[1].phyLayer.phyHeaderChecker flowIncomingDataRate:vector:mean 0
scalar MulticastFailureProtectionShowcase.f.eth[1].phyLayer.phyHeaderChecker flowIncomingDataRate:vector:stddev nan
scalar MulticastFailureProtectionShowcase.f.eth[1].phyLayer.phyHeaderChecker flowIncomingDataRate:vector:min 0
scalar MulticastFailureProtectionShowcase.f.eth[1].phyLayer.phyHeaderChecker flowIncomingDataRate:vector:max 0
scalar MulticastFailureProtectionShowcase.f.eth[1].phyLayer.phyHeaderChecker flowIncomingDataRate:vector:starttime 0.01
scalar MulticastFailureProtectionShowcase.f.eth[1].phyLayer.phyHeaderChecker flowIncomingDataRate:vector:endtime 0.01
scalar MulticastFailureProtectionShowcase.f.eth[1].phyLayer.phyHeaderChecker flowOutgoingPacketLengths:vector:count 0
scalar MulticastFailureProtectionShowcase.f.eth[1].phyLayer.phyHeaderChecker flowOutgoingPacketLengths:vector:sum 0
scalar MulticastFailureProtectionShowcase.f.eth[1].phyLayer.phyHeaderChecker flowOutgoingPacketLengths:vector:sumweights 0
scalar MulticastFailureProtectionShowcase.f.eth[1].phyLayer.phyHeaderChecker flowOutgoingPacketLengths:vector:mean -nan
scalar MulticastFailureProtectionShowcase.f.eth[1].phyLayer.phyHeaderChecker flowOutgoingPacketLengths:vector:stddev nan
scalar MulticastFailureProtectionShowcase.f.eth[1].phyLayer.phyHeaderChecker flowOutgoingPacketLengths:vector:min inf
scalar MulticastFailureProtectionShowcase.f.eth[1].phyLayer.phyHeaderChecker flowOutgoingPacketLengths:vector:max -inf
scalar MulticastFailureProtectionShowcase.f.eth[1].phyLayer.phyHeaderChecker flowOutgoingPacketLengths:vector:starttime nan
scalar MulticastFailureProtectionShowcase.f.eth[1].phyLayer.phyHeaderChecker flowOutgoingPacketLengths:vector:endtime nan
scalar MulticastFailureProtectionShowcase.f.eth[1].phyLayer.phyHeaderChecker flowOutgoingDataRate:vector:count 1
scalar MulticastFailureProtectionShowcase.f.eth[1].phyLayer.phyHeaderChecker flowOutgoingDataRate:vector:sum 0
scalar MulticastFailureProtectionShowcase.f.eth[1].phyLayer.phyHeaderChecker flowOutgoingDataRate:vector:sumweights 1
scalar MulticastFailureProtectionShowcase.f.eth[1].phyLayer.phyHeaderChecker flowOutgoingDataRate:vector:mean 0
scalar MulticastFailureProtectionShowcase.f.eth[1].phyLayer.phyHeaderChecker flowOutgoingDataRate:vector:stddev nan
scalar MulticastFailureProtectionShowcase.f.eth[1].phyLayer.phyHeaderChecker flowOutgoingDataRate:vector:min 0
scalar MulticastFailureProtectionShowcase.f.eth[1].phyLayer.phyHeaderChecker flowOutgoingDataRate:vector:max 0
scalar MulticastFailureProtectionShowcase.f.eth[1].phyLayer.phyHeaderChecker flowOutgoingDataRate:vector:starttime 0.01
scalar MulticastFailureProtectionShowcase.f.eth[1].phyLayer.phyHeaderChecker flowOutgoingDataRate:vector:endtime 0.01
scalar MulticastFailureProtectionShowcase.f.eth[1].phyLayer.phyHeaderChecker flowDroppedPacketLengths:vector:count 0
scalar MulticastFailureProtectionShowcase.f.eth[1].phyLayer.phyHeaderChecker flowDroppedPacketLengths:vector:sum 0
scalar MulticastFailureProtectionShowcase.f.eth[1].phyLayer.phyHeaderChecker flowDroppedPacketLengths:vector:sumweights 0
scalar MulticastFailureProtectionShowcase.f.eth[1].phyLayer.phyHeaderChecker flowDroppedPacketLengths:vector:mean -nan
scalar MulticastFailureProtectionShowcase.f.eth[1].phyLayer.phyHeaderChecker flowDroppedPacketLengths:vector:stddev nan
scalar MulticastFailureProtectionShowcase.f.eth[1].phyLayer.phyHeaderChecker flowDroppedPacketLengths:vector:min inf
scalar MulticastFailureProtectionShowcase.f.eth[1].phyLayer.phyHeaderChecker flowDroppedPacketLengths:vector:max -inf
scalar MulticastFailureProtectionShowcase.f.eth[1].phyLayer.phyHeaderChecker flowDroppedPacketLengths:vector:starttime nan
scalar MulticastFailureProtectionShowcase.f.eth[1].phyLayer.phyHeaderChecker flowDroppedPacketLengths:vector:endtime nan
scalar MulticastFailureProtectionShowcase.f.eth[1].phyLayer.phyHeaderChecker flowDroppedDataRate:vector:count 1
scalar MulticastFailureProtectionShowcase.f.eth[1].phyLayer.phyHeaderChecker flowDroppedDataRate:vector:sum 0
scalar MulticastFailureProtectionShowcase.f.eth[1].phyLayer.phyHeaderChecker flowDroppedDataRate:vector:sumweights 1
scalar MulticastFailureProtectionShowcase.f.eth[1].phyLayer.phyHeaderChecker flowDroppedDataRate:vector:mean 0
scalar MulticastFailureProtectionShowcase.f.eth[1].phyLayer.phyHeaderChecker flowDroppedDataRate:vector:stddev nan
scalar MulticastFailureProtectionShowcase.f.eth[1].phyLayer.phyHeaderChecker flowDroppedDataRate:vector:min 0
scalar MulticastFailureProtectionShowcase.f.eth[1].phyLayer.phyHeaderChecker flowDroppedDataRate:vector:max 0
scalar MulticastFailureProtectionShowcase.f.eth[1].phyLayer.phyHeaderChecker flowDroppedDataRate:vector:starttime 0.01
scalar MulticastFailureProtectionShowcase.f.eth[1].phyLayer.phyHeaderChecker flowDroppedDataRate:vector:endtime 0.01
scalar MulticastFailureProtectionShowcase.f.eth[1].phyLayer.inboundEmitter incomingPacketLengths:vector:count 10
scalar MulticastFailureProtectionShowcase.f.eth[1].phyLayer.inboundEmitter incomingPacketLengths:vector:sum 98880
scalar MulticastFailureProtectionShowcase.f.eth[1].phyLayer.inboundEmitter incomingPacketLengths:vector:sumweights 10
scalar MulticastFailureProtectionShowcase.f.eth[1].phyLayer.inboundEmitter incomingPacketLengths:vector:mean 9888
scalar MulticastFailureProtectionShowcase.f.eth[1].phyLayer.inboundEmitter incomingPacketLengths:vector:stddev 0
scalar MulticastFailureProtectionShowcase.f.eth[1].phyLayer.inboundEmitter incomingPacketLengths:vector:min 9888
scalar MulticastFailureProtectionShowcase.f.eth[1].phyLayer.inboundEmitter incomingPacketLengths:vector:max 9888
scalar MulticastFailureProtectionShowcase.f.eth[1].phyLayer.inboundEmitter incomingPacketLengths:vector:starttime 2.981400000000001e-05
scalar MulticastFailureProtectionShowcase.f.eth[1].phyLayer.inboundEmitter incomingPacketLengths:vector:endtime 0.0090298140000000023
scalar MulticastFailureProtectionShowcase.f.eth[1].phyLayer.inboundEmitter incomingDataRate:vector:count 1
scalar MulticastFailureProtectionShowcase.f.eth[1].phyLayer.inboundEmitter incomingDataRate:vector:sum 9888000
scalar MulticastFailureProtectionShowcase.f.eth[1].phyLayer.inboundEmitter incomingDataRate:vector:sumweights 1
scalar MulticastFailureProtectionShowcase.f.eth[1].phyLayer.inboundEmitter incomingDataRate:vector:mean 9888000
scalar MulticastFailureProtectionShowcase.f.eth[1].phyLayer.inboundEmitter incomingDataRate:vector:stddev nan
scalar MulticastFailureProtectionShowcase.f.eth[1].phyLayer.inboundEmitter incomingDataRate:vector:min 9888000
scalar MulticastFailureProtectionShowcase.f.eth[1].phyLayer.inboundEmitter incomingDataRate:vector:max 9888000
scalar MulticastFailureProtectionShowcase.f.eth[1].phyLayer.inboundEmitter incomingDataRate:vector:starttime 0.01
scalar MulticastFailureProtectionShowcase.f.eth[1].phyLayer.inboundEmitter incomingDataRate:vector:endtime 0.01
scalar MulticastFailureProtectionShowcase.f.eth[1].phyLayer.inboundEmitter outgoingPacketLengths:vector:count 10
scalar MulticastFailureProtectionShowcase.f.eth[1].phyLayer.inboundEmitter outgoingPacketLengths:vector:sum 98880
scalar MulticastFailureProtectionShowcase.f.eth[1].phyLayer.inboundEmitter outgoingPacketLengths:vector:sumweights 10
scalar MulticastFailureProtectionShowcase.f.eth[1].phyLayer.inboundEmitter outgoingPacketLengths:vector:mean 9888
scalar MulticastFailureProtectionShowcase.f.eth[1].phyLayer.inboundEmitter outgoingPacketLengths:vector:stddev 0
scalar MulticastFailureProtectionShowcase.f.eth[1].phyLayer.inboundEmitter outgoingPacketLengths:vector:min 9888
scalar MulticastFailureProtectionShowcase.f.eth[1].phyLayer.inboundEmitter outgoingPacketLengths:vector:max 9888
scalar MulticastFailureProtectionShowcase.f.eth[1].phyLayer.inboundEmitter outgoingPacketLengths:vector:starttime 2.981400000000001e-05
scalar MulticastFailureProtectionShowcase.f.eth[1].phyLayer.inboundEmitter outgoingPacketLengths:vector:endtime 0.0090298140000000023
scalar MulticastFailureProtectionShowcase.f.eth[1].phyLayer.inboundEmitter outgoingDataRate:vector:count 1
scalar MulticastFailureProtectionShowcase.f.eth[1].phyLayer.inboundEmitter outgoingDataRate:vector:sum 9888000
scalar MulticastFailureProtectionShowcase.f.eth[1].phyLayer.inboundEmitter outgoingDataRate:vector:sumweights 1
scalar MulticastFailureProtectionShowcase.f.eth[1].phyLayer.inboundEmitter outgoingDataRate:vector:mean 9888000
scalar MulticastFailureProtectionShowcase.f.eth[1].phyLayer.inboundEmitter outgoingDataRate:vector:stddev nan
scalar MulticastFailureProtectionShowcase.f.eth[1].phyLayer.inboundEmitter outgoingDataRate:vector:min 9888000
scalar MulticastFailureProtectionShowcase.f.eth[1].phyLayer.inboundEmitter outgoingDataRate:vector:max 9888000
scalar MulticastFailureProtectionShowcase.f.eth[1].phyLayer.inboundEmitter outgoingDataRate:vector:starttime 0.01
scalar MulticastFailureProtectionShowcase.f.eth[1].phyLayer.inboundEmitter outgoingDataRate:vector:endtime 0.01
scalar MulticastFailureProtectionShowcase.f.eth[1].phyLayer.inboundEmitter flowIncomingPacketLengths:vector:count 0
scalar MulticastFailureProtectionShowcase.f.eth[1].phyLayer.inboundEmitter flowIncomingPacketLengths:vector:sum 0
scalar MulticastFailureProtectionShowcase.f.eth[1].phyLayer.inboundEmitter flowIncomingPacketLengths:vector:sumweights 0
scalar MulticastFailureProtectionShowcase.f.eth[1].phyLayer.inboundEmitter flowIncomingPacketLengths:vector:mean -nan
scalar MulticastFailureProtectionShowcase.f.eth[1].phyLayer.inboundEmitter flowIncomingPacketLengths:vector:stddev nan
scalar MulticastFailureProtectionShowcase.f.eth[1].phyLayer.inboundEmitter flowIncomingPacketLengths:vector:min inf
scalar MulticastFailureProtectionShowcase.f.eth[1].phyLayer.inboundEmitter flowIncomingPacketLengths:vector:max -inf
scalar MulticastFailureProtectionShowcase.f.eth[1].phyLayer.inboundEmitter flowIncomingPacketLengths:vector:starttime nan
scalar MulticastFailureProtectionShowcase.f.eth[1].phyLayer.inboundEmitter flowIncomingPacketLengths:vector:endtime nan
scalar MulticastFailureProtectionShowcase.f.eth[1].phyLayer.inboundEmitter flowIncomingDataRate:vector:count 1
scalar MulticastFailureProtectionShowcase.f.eth[1].phyLayer.inboundEmitter flowIncomingDataRate:vector:sum 0
scalar MulticastFailureProtectionShowcase.f.eth[1].phyLayer.inboundEmitter flowIncomingDataRate:vector:sumweights 1
scalar MulticastFailureProtectionShowcase.f.eth[1].phyLayer.inboundEmitter flowIncomingDataRate:vector:mean 0
scalar MulticastFailureProtectionShowcase.f.eth[1].phyLayer.inboundEmitter flowIncomingDataRate:vector:stddev nan
scalar MulticastFailureProtectionShowcase.f.eth[1].phyLayer.inboundEmitter flowIncomingDataRate:vector:min 0
scalar MulticastFailureProtectionShowcase.f.eth[1].phyLayer.inboundEmitter flowIncomingDataRate:vector:max 0
scalar MulticastFailureProtectionShowcase.f.eth[1].phyLayer.inboundEmitter flowIncomingDataRate:vector:starttime 0.01
scalar MulticastFailureProtectionShowcase.f.eth[1].phyLayer.inboundEmitter flowIncomingDataRate:vector:endtime 0.01
scalar MulticastFailureProtectionShowcase.f.eth[1].phyLayer.inboundEmitter flowOutgoingPacketLengths:vector:count 0
scalar MulticastFailureProtectionShowcase.f.eth[1].phyLayer.inboundEmitter flowOutgoingPacketLengths:vector:sum 0
scalar MulticastFailureProtectionShowcase.f.eth[1].phyLayer.inboundEmitter flowOutgoingPacketLengths:vector:sumweights 0
scalar MulticastFailureProtectionShowcase.f.eth[1].phyLayer.inboundEmitter flowOutgoingPacketLengths:vector:mean -nan
scalar MulticastFailureProtectionShowcase.f.eth[1].phyLayer.inboundEmitter flowOutgoingPacketLengths:vector:stddev nan
scalar MulticastFailureProtectionShowcase.f.eth[1].phyLayer.inboundEmitter flowOutgoingPacketLengths:vector:min inf
scalar MulticastFailureProtectionShowcase.f.eth[1].phyLayer.inboundEmitter flowOutgoingPacketLengths:vector:max -inf
scalar MulticastFailureProtectionShowcase.f.eth[1].phyLayer.inboundEmitter flowOutgoingPacketLengths:vector:starttime nan
scalar MulticastFailureProtectionShowcase.f.eth[1].phyLayer.inboundEmitter flowOutgoingPacketLengths:vector:endtime nan
scalar MulticastFailureProtectionShowcase.f.eth[1].phyLayer.inboundEmitter flowOutgoingDataRate:vector:count 1
scalar MulticastFailureProtectionShowcase.f.eth[1].phyLayer.inboundEmitter flowOutgoingDataRate:vector:sum 0
scalar MulticastFailureProtectionShowcase.f.eth[1].phyLayer.inboundEmitter flowOutgoingDataRate:vector:sumweights 1
scalar MulticastFailureProtectionShowcase.f.eth[1].phyLayer.inboundEmitter flowOutgoingDataRate:vector:mean 0
scalar MulticastFailureProtectionShowcase.f.eth[1].phyLayer.inboundEmitter flowOutgoingDataRate:vector:stddev nan
scalar MulticastFailureProtectionShowcase.f.eth[1].phyLayer.inboundEmitter flowOutgoingDataRate:vector:min 0
scalar MulticastFailureProtectionShowcase.f.eth[1].phyLayer.inboundEmitter flowOutgoingDataRate:vector:max 0
scalar MulticastFailureProtectionShowcase.f.eth[1].phyLayer.inboundEmitter flowOutgoingDataRate:vector:starttime 0.01
scalar MulticastFailureProtectionShowcase.f.eth[1].phyLayer.inboundEmitter flowOutgoingDataRate:vector:endtime 0.01
scalar MulticastFailureProtectionShowcase.f.eth[1].phyLayer.receiver throughput:vector:count 1
scalar MulticastFailureProtectionShowcase.f.eth[1].phyLayer.receiver throughput:vector:sum 9888000
scalar MulticastFailureProtectionShowcase.f.eth[1].phyLayer.receiver throughput:vector:sumweights 1
scalar MulticastFailureProtectionShowcase.f.eth[1].phyLayer.receiver throughput:vector:mean 9888000
scalar MulticastFailureProtectionShowcase.f.eth[1].phyLayer.receiver throughput:vector:stddev nan
scalar MulticastFailureProtectionShowcase.f.eth[1].phyLayer.receiver throughput:vector:min 9888000
scalar MulticastFailureProtectionShowcase.f.eth[1].phyLayer.receiver throughput:vector:max 9888000
scalar MulticastFailureProtectionShowcase.f.eth[1].phyLayer.receiver throughput:vector:starttime 0.01
scalar MulticastFailureProtectionShowcase.f.eth[1].phyLayer.receiver throughput:vector:endtime 0.01
scalar MulticastFailureProtectionShowcase.f.eth[1].phyLayer.receiver receptionTime:vector:count 10
scalar MulticastFailureProtectionShowcase.f.eth[1].phyLayer.receiver receptionTime:vector:sum 9.8879999999999988e-05
scalar MulticastFailureProtectionShowcase.f.eth[1].phyLayer.receiver receptionTime:vector:sumweights 10
scalar MulticastFailureProtectionShowcase.f.eth[1].phyLayer.receiver receptionTime:vector:mean 9.8879999999999992e-06
scalar MulticastFailureProtectionShowcase.f.eth[1].phyLayer.receiver receptionTime:vector:stddev 0
scalar MulticastFailureProtectionShowcase.f.eth[1].phyLayer.receiver receptionTime:vector:min 9.8879999999999992e-06
scalar MulticastFailureProtectionShowcase.f.eth[1].phyLayer.receiver receptionTime:vector:max 9.8879999999999992e-06
scalar MulticastFailureProtectionShowcase.f.eth[1].phyLayer.receiver receptionTime:vector:starttime 2.981400000000001e-05
scalar MulticastFailureProtectionShowcase.f.eth[1].phyLayer.receiver receptionTime:vector:endtime 0.0090298140000000023
scalar MulticastFailureProtectionShowcase.f.eth[1].phyLayer.receiver flowReceptionTime:vector:count 0
scalar MulticastFailureProtectionShowcase.f.eth[1].phyLayer.receiver flowReceptionTime:vector:sum 0
scalar MulticastFailureProtectionShowcase.f.eth[1].phyLayer.receiver flowReceptionTime:vector:sumweights 0
scalar MulticastFailureProtectionShowcase.f.eth[1].phyLayer.receiver flowReceptionTime:vector:mean -nan
scalar MulticastFailureProtectionShowcase.f.eth[1].phyLayer.receiver flowReceptionTime:vector:stddev nan
scalar MulticastFailureProtectionShowcase.f.eth[1].phyLayer.receiver flowReceptionTime:vector:min inf
scalar MulticastFailureProtectionShowcase.f.eth[1].phyLayer.receiver flowReceptionTime:vector:max -inf
scalar MulticastFailureProtectionShowcase.f.eth[1].phyLayer.receiver flowReceptionTime:vector:starttime nan
scalar MulticastFailureProtectionShowcase.f.eth[1].phyLayer.receiver flowReceptionTime:vector:endtime nan
scalar MulticastFailureProtectionShowcase.f.eth[1] packetDropInterfaceDown:vector(packetBytes):count 0
scalar MulticastFailureProtectionShowcase.f.eth[1] packetDropInterfaceDown:vector(packetBytes):sum 0
scalar MulticastFailureProtectionShowcase.f.eth[1] packetDropInterfaceDown:vector(packetBytes):sumweights 0
scalar MulticastFailureProtectionShowcase.f.eth[1] packetDropInterfaceDown:vector(packetBytes):mean -nan
scalar MulticastFailureProtectionShowcase.f.eth[1] packetDropInterfaceDown:vector(packetBytes):stddev nan
scalar MulticastFailureProtectionShowcase.f.eth[1] packetDropInterfaceDown:vector(packetBytes):min inf
scalar MulticastFailureProtectionShowcase.f.eth[1] packetDropInterfaceDown:vector(packetBytes):max -inf
scalar MulticastFailureProtectionShowcase.f.eth[1] packetDropInterfaceDown:vector(packetBytes):starttime nan
scalar MulticastFailureProtectionShowcase.f.eth[1] packetDropInterfaceDown:vector(packetBytes):endtime nan
scalar MulticastFailureProtectionShowcase.f.eth[1] packetDropNoCarrier:vector(packetBytes):count 0
scalar MulticastFailureProtectionShowcase.f.eth[1] packetDropNoCarrier:vector(packetBytes):sum 0
scalar MulticastFailureProtectionShowcase.f.eth[1] packetDropNoCarrier:vector(packetBytes):sumweights 0
scalar MulticastFailureProtectionShowcase.f.eth[1] packetDropNoCarrier:vector(packetBytes):mean -nan
scalar MulticastFailureProtectionShowcase.f.eth[1] packetDropNoCarrier:vector(packetBytes):stddev nan
scalar MulticastFailureProtectionShowcase.f.eth[1] packetDropNoCarrier:vector(packetBytes):min inf
scalar MulticastFailureProtectionShowcase.f.eth[1] packetDropNoCarrier:vector(packetBytes):max -inf
scalar MulticastFailureProtectionShowcase.f.eth[1] packetDropNoCarrier:vector(packetBytes):starttime nan
scalar MulticastFailureProtectionShowcase.f.eth[1] packetDropNoCarrier:vector(packetBytes):endtime nan

