version 3
run General-0-20250108-11:33:02-13232
attr configname General
attr datetime 20250108-11:33:02
attr datetimef 20250108-113302
attr experiment General
attr inifile omnetpp.ini
attr iterationvars ""
attr iterationvarsd ""
attr iterationvarsf ""
attr measurement ""
attr network ResidenceTimeMeasurementShowcase
attr processid 13232
attr repetition 0
attr replication #0
attr resultdir results
attr runnumber 0
attr seedset 0
config **.param-recording false
config image-path /home/levy/workspace/inet/images
config output-scalar-file results/omnetpp.ini-General-#0.sca
config output-vector-file results/omnetpp.ini-General-#0.vec
config sim-time-limit 1s
config network ResidenceTimeMeasurementShowcase
config description "Measure packet residence time in all network nodes"
config sim-time-limit 1s
config *.source.numApps 1
config *.source.app[0].typename UdpSourceApp
config *.source.app[0].source.packetLength 1200B
config *.source.app[0].source.productionInterval exponential(100us)
config *.source.app[0].io.destAddress "\"destination\""
config *.source.app[0].io.destPort 1000
config *.destination.numApps 1
config *.destination.app[0].typename UdpSinkApp
config *.destination.app[0].io.localPort 1000
config *.*.measurer.typename ResidenceTimeMeasurer

scalar ResidenceTimeMeasurementShowcase.source.ethernet pauseSent:count 0
scalar ResidenceTimeMeasurementShowcase.source.ethernet pauseSent:sum 0
scalar ResidenceTimeMeasurementShowcase.source.ethernet decapPk:count 0
scalar ResidenceTimeMeasurementShowcase.source.ethernet decapPk:sum(packetBytes) 0
scalar ResidenceTimeMeasurementShowcase.source.ethernet encapPk:count 9962
scalar ResidenceTimeMeasurementShowcase.source.ethernet encapPk:sum(packetBytes) 12233336
scalar ResidenceTimeMeasurementShowcase.source.lo[0].lo rcvdPkFromHl:count 0
scalar ResidenceTimeMeasurementShowcase.source.lo[0].lo rcvdPkFromHl:sum(packetBytes) 0
scalar ResidenceTimeMeasurementShowcase.source.lo[0].lo passedUpPk:count 0
scalar ResidenceTimeMeasurementShowcase.source.lo[0].lo passedUpPk:sum(packetBytes) 0
scalar ResidenceTimeMeasurementShowcase.source.lo[0] packetDropInterfaceDown:count 0
scalar ResidenceTimeMeasurementShowcase.source.lo[0] packetDropInterfaceDown:sum(packetBytes) 0
scalar ResidenceTimeMeasurementShowcase.source.lo[0] packetDropNoCarrier:count 0
scalar ResidenceTimeMeasurementShowcase.source.lo[0] packetDropNoCarrier:sum(packetBytes) 0
scalar ResidenceTimeMeasurementShowcase.source.eth[0].queue queueLength:last 0
scalar ResidenceTimeMeasurementShowcase.source.eth[0].queue queueLength:max 3
scalar ResidenceTimeMeasurementShowcase.source.eth[0].queue queueLength:timeavg 0.00569363252
scalar ResidenceTimeMeasurementShowcase.source.eth[0].queue queueBitLength:last 0
scalar ResidenceTimeMeasurementShowcase.source.eth[0].queue queueBitLength:max 29904
scalar ResidenceTimeMeasurementShowcase.source.eth[0].queue queueBitLength:timeavg 56.75412895936
scalar ResidenceTimeMeasurementShowcase.source.eth[0].queue outgoingPackets:count 9962
scalar ResidenceTimeMeasurementShowcase.source.eth[0].queue outgoingPacketLengths:sum 99301216
scalar ResidenceTimeMeasurementShowcase.source.eth[0].queue incomingPackets:count 9962
scalar ResidenceTimeMeasurementShowcase.source.eth[0].queue incomingPacketLengths:sum 99301216
scalar ResidenceTimeMeasurementShowcase.source.eth[0].queue droppedPacketsQueueOverflow:count 0
scalar ResidenceTimeMeasurementShowcase.source.eth[0].queue droppedPacketLengthsQueueOverflow:sum 0
scalar ResidenceTimeMeasurementShowcase.source.eth[0].mac "simulated time" 1
scalar ResidenceTimeMeasurementShowcase.source.eth[0].mac full-duplex 1
scalar ResidenceTimeMeasurementShowcase.source.eth[0].mac "frames/sec sent" 9962
scalar ResidenceTimeMeasurementShowcase.source.eth[0].mac "frames/sec rcvd" 0
scalar ResidenceTimeMeasurementShowcase.source.eth[0].mac "bits/sec sent" 99301216
scalar ResidenceTimeMeasurementShowcase.source.eth[0].mac "bits/sec rcvd" 0
scalar ResidenceTimeMeasurementShowcase.source.eth[0].mac "rx channel idle (%)" 100
scalar ResidenceTimeMeasurementShowcase.source.eth[0].mac "rx channel utilization (%)" 0
scalar ResidenceTimeMeasurementShowcase.source.eth[0].mac rxPausePkUnits:count 0
scalar ResidenceTimeMeasurementShowcase.source.eth[0].mac rxPausePkUnits:sum 0
scalar ResidenceTimeMeasurementShowcase.source.eth[0].mac txPausePkUnits:count 0
scalar ResidenceTimeMeasurementShowcase.source.eth[0].mac txPausePkUnits:sum 0
scalar ResidenceTimeMeasurementShowcase.source.eth[0].mac rxPkOk:count 0
scalar ResidenceTimeMeasurementShowcase.source.eth[0].mac rxPkOk:sum(packetBytes) 0
scalar ResidenceTimeMeasurementShowcase.source.eth[0].mac txPk:count 9962
scalar ResidenceTimeMeasurementShowcase.source.eth[0].mac txPk:sum(packetBytes) 12412652
scalar ResidenceTimeMeasurementShowcase.source.eth[0].mac packetReceivedFromUpper:count 9962
scalar ResidenceTimeMeasurementShowcase.source.eth[0].mac packetReceivedFromUpper:sum(packetBytes) 12412652
scalar ResidenceTimeMeasurementShowcase.source.eth[0].mac passedUpPk:count 0
scalar ResidenceTimeMeasurementShowcase.source.eth[0].mac passedUpPk:sum(packetBytes) 0
scalar ResidenceTimeMeasurementShowcase.source.eth[0].mac packetDropIncorrectlyReceived:count 0
scalar ResidenceTimeMeasurementShowcase.source.eth[0].mac packetDropIncorrectlyReceived:sum(packetBytes) 0
scalar ResidenceTimeMeasurementShowcase.source.eth[0].mac packetDropInterfaceDown:count 0
scalar ResidenceTimeMeasurementShowcase.source.eth[0].mac packetDropInterfaceDown:sum(packetBytes) 0
scalar ResidenceTimeMeasurementShowcase.source.eth[0].mac packetDropNotAddressedToUs:count 0
scalar ResidenceTimeMeasurementShowcase.source.eth[0].mac packetDropNotAddressedToUs:sum(packetBytes) 0
scalar ResidenceTimeMeasurementShowcase.source.eth[0] packetDropInterfaceDown:count 0
scalar ResidenceTimeMeasurementShowcase.source.eth[0] packetDropInterfaceDown:sum(packetBytes) 0
scalar ResidenceTimeMeasurementShowcase.source.eth[0] packetDropNoCarrier:count 0
scalar ResidenceTimeMeasurementShowcase.source.eth[0] packetDropNoCarrier:sum(packetBytes) 0
scalar ResidenceTimeMeasurementShowcase.source.ipv4.ip packetDropAddressResolutionFailed:count 0
scalar ResidenceTimeMeasurementShowcase.source.ipv4.ip packetDropAddressResolutionFailed:sum(packetBytes) 0
scalar ResidenceTimeMeasurementShowcase.source.ipv4.ip packetDropHopLimitReached:count 0
scalar ResidenceTimeMeasurementShowcase.source.ipv4.ip packetDropHopLimitReached:sum(packetBytes) 0
scalar ResidenceTimeMeasurementShowcase.source.ipv4.ip packetDropForwardingDisabled:count 0
scalar ResidenceTimeMeasurementShowcase.source.ipv4.ip packetDropForwardingDisabled:sum(packetBytes) 0
scalar ResidenceTimeMeasurementShowcase.source.ipv4.ip packetDropLifetimeExpired:count 0
scalar ResidenceTimeMeasurementShowcase.source.ipv4.ip packetDropLifetimeExpired:sum(packetBytes) 0
scalar ResidenceTimeMeasurementShowcase.source.ipv4.ip packetDropNoInterfaceFound:count 0
scalar ResidenceTimeMeasurementShowcase.source.ipv4.ip packetDropNoInterfaceFound:sum(packetBytes) 0
scalar ResidenceTimeMeasurementShowcase.source.ipv4.ip packetDropNoRouteFound:count 0
scalar ResidenceTimeMeasurementShowcase.source.ipv4.ip packetDropNoRouteFound:sum(packetBytes) 0
scalar ResidenceTimeMeasurementShowcase.source.ipv4.ip packetDropUndefined:count 0
scalar ResidenceTimeMeasurementShowcase.source.ipv4.ip packetDropUndefined:sum(packetBytes) 0
scalar ResidenceTimeMeasurementShowcase.source.udp packetReceived:count 0
scalar ResidenceTimeMeasurementShowcase.source.udp packetReceived:sum(packetBytes) 0
scalar ResidenceTimeMeasurementShowcase.source.udp packetSent:count 9962
scalar ResidenceTimeMeasurementShowcase.source.udp packetSent:sum(packetBytes) 12034096
scalar ResidenceTimeMeasurementShowcase.source.udp passedUpPk:count 0
scalar ResidenceTimeMeasurementShowcase.source.udp droppedPkWrongPort:count 0
scalar ResidenceTimeMeasurementShowcase.source.udp droppedPkBadChecksum:count 0
scalar ResidenceTimeMeasurementShowcase.source.app[0].source packets:count 9962
scalar ResidenceTimeMeasurementShowcase.source.app[0].source packetLengths:sum 95635200
scalar ResidenceTimeMeasurementShowcase.source.app[0].io "packets sent" 9962
scalar ResidenceTimeMeasurementShowcase.source.app[0].io "packets received" 0
scalar ResidenceTimeMeasurementShowcase.source.app[0].io packetReceived:count 0
scalar ResidenceTimeMeasurementShowcase.source.app[0].io packetReceived:sum(packetBytes) 0
scalar ResidenceTimeMeasurementShowcase.source.app[0].io packetSent:count 9962
scalar ResidenceTimeMeasurementShowcase.source.app[0].io packetSent:sum(packetBytes) 11954400
scalar ResidenceTimeMeasurementShowcase.switch.bridging "processed frames" 0
scalar ResidenceTimeMeasurementShowcase.switch.bridging "discarded frames" 0
scalar ResidenceTimeMeasurementShowcase.switch.bridging "number of received BPDUs from STP module" 0
scalar ResidenceTimeMeasurementShowcase.switch.bridging "number of received frames from network (including BPDUs)" 9962
scalar ResidenceTimeMeasurementShowcase.switch.bridging "number of dropped frames (including BPDUs)" 0
scalar ResidenceTimeMeasurementShowcase.switch.bridging "number of delivered BPDUs to the STP module" 0
scalar ResidenceTimeMeasurementShowcase.switch.bridging "number of dispatched BPDU frames to the network" 0
scalar ResidenceTimeMeasurementShowcase.switch.bridging "number of dispatched non-BDPU frames to the network" 0
scalar ResidenceTimeMeasurementShowcase.switch.bridging packetDropped:count 0
scalar ResidenceTimeMeasurementShowcase.switch.bridging packetDropped:sum(packetBytes) 0
scalar ResidenceTimeMeasurementShowcase.switch.ethernet pauseSent:count 0
scalar ResidenceTimeMeasurementShowcase.switch.ethernet pauseSent:sum 0
scalar ResidenceTimeMeasurementShowcase.switch.ethernet decapPk:count 9962
scalar ResidenceTimeMeasurementShowcase.switch.ethernet decapPk:sum(packetBytes) 12233336
scalar ResidenceTimeMeasurementShowcase.switch.ethernet encapPk:count 9962
scalar ResidenceTimeMeasurementShowcase.switch.ethernet encapPk:sum(packetBytes) 12233336
scalar ResidenceTimeMeasurementShowcase.switch.eth[0].queue queueLength:last 0
scalar ResidenceTimeMeasurementShowcase.switch.eth[0].queue queueLength:max 0
scalar ResidenceTimeMeasurementShowcase.switch.eth[0].queue queueLength:timeavg 0
scalar ResidenceTimeMeasurementShowcase.switch.eth[0].queue queueBitLength:last 0
scalar ResidenceTimeMeasurementShowcase.switch.eth[0].queue queueBitLength:max 0
scalar ResidenceTimeMeasurementShowcase.switch.eth[0].queue queueBitLength:timeavg 0
scalar ResidenceTimeMeasurementShowcase.switch.eth[0].queue outgoingPackets:count 0
scalar ResidenceTimeMeasurementShowcase.switch.eth[0].queue outgoingPacketLengths:sum 0
scalar ResidenceTimeMeasurementShowcase.switch.eth[0].queue incomingPackets:count 0
scalar ResidenceTimeMeasurementShowcase.switch.eth[0].queue incomingPacketLengths:sum 0
scalar ResidenceTimeMeasurementShowcase.switch.eth[0].queue droppedPacketsQueueOverflow:count 0
scalar ResidenceTimeMeasurementShowcase.switch.eth[0].queue droppedPacketLengthsQueueOverflow:sum 0
scalar ResidenceTimeMeasurementShowcase.switch.eth[0].mac "simulated time" 1
scalar ResidenceTimeMeasurementShowcase.switch.eth[0].mac full-duplex 1
scalar ResidenceTimeMeasurementShowcase.switch.eth[0].mac "frames/sec sent" 0
scalar ResidenceTimeMeasurementShowcase.switch.eth[0].mac "frames/sec rcvd" 9962
scalar ResidenceTimeMeasurementShowcase.switch.eth[0].mac "bits/sec sent" 0
scalar ResidenceTimeMeasurementShowcase.switch.eth[0].mac "bits/sec rcvd" 99301216
scalar ResidenceTimeMeasurementShowcase.switch.eth[0].mac "rx channel idle (%)" 90.0061216
scalar ResidenceTimeMeasurementShowcase.switch.eth[0].mac "rx channel utilization (%)" 9.9938784
scalar ResidenceTimeMeasurementShowcase.switch.eth[0].mac rxPausePkUnits:count 0
scalar ResidenceTimeMeasurementShowcase.switch.eth[0].mac rxPausePkUnits:sum 0
scalar ResidenceTimeMeasurementShowcase.switch.eth[0].mac txPausePkUnits:count 0
scalar ResidenceTimeMeasurementShowcase.switch.eth[0].mac txPausePkUnits:sum 0
scalar ResidenceTimeMeasurementShowcase.switch.eth[0].mac rxPkOk:count 9962
scalar ResidenceTimeMeasurementShowcase.switch.eth[0].mac rxPkOk:sum(packetBytes) 12412652
scalar ResidenceTimeMeasurementShowcase.switch.eth[0].mac txPk:count 0
scalar ResidenceTimeMeasurementShowcase.switch.eth[0].mac txPk:sum(packetBytes) 0
scalar ResidenceTimeMeasurementShowcase.switch.eth[0].mac packetReceivedFromUpper:count 0
scalar ResidenceTimeMeasurementShowcase.switch.eth[0].mac packetReceivedFromUpper:sum(packetBytes) 0
scalar ResidenceTimeMeasurementShowcase.switch.eth[0].mac passedUpPk:count 9962
scalar ResidenceTimeMeasurementShowcase.switch.eth[0].mac passedUpPk:sum(packetBytes) 12412652
scalar ResidenceTimeMeasurementShowcase.switch.eth[0].mac packetDropIncorrectlyReceived:count 0
scalar ResidenceTimeMeasurementShowcase.switch.eth[0].mac packetDropIncorrectlyReceived:sum(packetBytes) 0
scalar ResidenceTimeMeasurementShowcase.switch.eth[0].mac packetDropInterfaceDown:count 0
scalar ResidenceTimeMeasurementShowcase.switch.eth[0].mac packetDropInterfaceDown:sum(packetBytes) 0
scalar ResidenceTimeMeasurementShowcase.switch.eth[0].mac packetDropNotAddressedToUs:count 0
scalar ResidenceTimeMeasurementShowcase.switch.eth[0].mac packetDropNotAddressedToUs:sum(packetBytes) 0
scalar ResidenceTimeMeasurementShowcase.switch.eth[0] packetDropInterfaceDown:count 0
scalar ResidenceTimeMeasurementShowcase.switch.eth[0] packetDropInterfaceDown:sum(packetBytes) 0
scalar ResidenceTimeMeasurementShowcase.switch.eth[0] packetDropNoCarrier:count 0
scalar ResidenceTimeMeasurementShowcase.switch.eth[0] packetDropNoCarrier:sum(packetBytes) 0
scalar ResidenceTimeMeasurementShowcase.switch.eth[1].queue queueLength:last 169
scalar ResidenceTimeMeasurementShowcase.switch.eth[1].queue queueLength:max 196
scalar ResidenceTimeMeasurementShowcase.switch.eth[1].queue queueLength:timeavg 39.593964583725
scalar ResidenceTimeMeasurementShowcase.switch.eth[1].queue queueBitLength:last 1684592
scalar ResidenceTimeMeasurementShowcase.switch.eth[1].queue queueBitLength:max 1953728
scalar ResidenceTimeMeasurementShowcase.switch.eth[1].queue queueBitLength:timeavg 394672.63897057
scalar ResidenceTimeMeasurementShowcase.switch.eth[1].queue outgoingPackets:count 9793
scalar ResidenceTimeMeasurementShowcase.switch.eth[1].queue outgoingPacketLengths:sum 97616624
scalar ResidenceTimeMeasurementShowcase.switch.eth[1].queue incomingPackets:count 9962
scalar ResidenceTimeMeasurementShowcase.switch.eth[1].queue incomingPacketLengths:sum 99301216
scalar ResidenceTimeMeasurementShowcase.switch.eth[1].queue droppedPacketsQueueOverflow:count 0
scalar ResidenceTimeMeasurementShowcase.switch.eth[1].queue droppedPacketLengthsQueueOverflow:sum 0
scalar ResidenceTimeMeasurementShowcase.switch.eth[1].mac "simulated time" 1
scalar ResidenceTimeMeasurementShowcase.switch.eth[1].mac full-duplex 1
scalar ResidenceTimeMeasurementShowcase.switch.eth[1].mac "frames/sec sent" 9792
scalar ResidenceTimeMeasurementShowcase.switch.eth[1].mac "frames/sec rcvd" 0
scalar ResidenceTimeMeasurementShowcase.switch.eth[1].mac "bits/sec sent" 97606656
scalar ResidenceTimeMeasurementShowcase.switch.eth[1].mac "bits/sec rcvd" 0
scalar ResidenceTimeMeasurementShowcase.switch.eth[1].mac "rx channel idle (%)" 100
scalar ResidenceTimeMeasurementShowcase.switch.eth[1].mac "rx channel utilization (%)" 0
scalar ResidenceTimeMeasurementShowcase.switch.eth[1].mac rxPausePkUnits:count 0
scalar ResidenceTimeMeasurementShowcase.switch.eth[1].mac rxPausePkUnits:sum 0
scalar ResidenceTimeMeasurementShowcase.switch.eth[1].mac txPausePkUnits:count 0
scalar ResidenceTimeMeasurementShowcase.switch.eth[1].mac txPausePkUnits:sum 0
scalar ResidenceTimeMeasurementShowcase.switch.eth[1].mac rxPkOk:count 0
scalar ResidenceTimeMeasurementShowcase.switch.eth[1].mac rxPkOk:sum(packetBytes) 0
scalar ResidenceTimeMeasurementShowcase.switch.eth[1].mac txPk:count 9792
scalar ResidenceTimeMeasurementShowcase.switch.eth[1].mac txPk:sum(packetBytes) 12200832
scalar ResidenceTimeMeasurementShowcase.switch.eth[1].mac packetReceivedFromUpper:count 9793
scalar ResidenceTimeMeasurementShowcase.switch.eth[1].mac packetReceivedFromUpper:sum(packetBytes) 12202078
scalar ResidenceTimeMeasurementShowcase.switch.eth[1].mac passedUpPk:count 0
scalar ResidenceTimeMeasurementShowcase.switch.eth[1].mac passedUpPk:sum(packetBytes) 0
scalar ResidenceTimeMeasurementShowcase.switch.eth[1].mac packetDropIncorrectlyReceived:count 0
scalar ResidenceTimeMeasurementShowcase.switch.eth[1].mac packetDropIncorrectlyReceived:sum(packetBytes) 0
scalar ResidenceTimeMeasurementShowcase.switch.eth[1].mac packetDropInterfaceDown:count 0
scalar ResidenceTimeMeasurementShowcase.switch.eth[1].mac packetDropInterfaceDown:sum(packetBytes) 0
scalar ResidenceTimeMeasurementShowcase.switch.eth[1].mac packetDropNotAddressedToUs:count 0
scalar ResidenceTimeMeasurementShowcase.switch.eth[1].mac packetDropNotAddressedToUs:sum(packetBytes) 0
scalar ResidenceTimeMeasurementShowcase.switch.eth[1] packetDropInterfaceDown:count 0
scalar ResidenceTimeMeasurementShowcase.switch.eth[1] packetDropInterfaceDown:sum(packetBytes) 0
scalar ResidenceTimeMeasurementShowcase.switch.eth[1] packetDropNoCarrier:count 0
scalar ResidenceTimeMeasurementShowcase.switch.eth[1] packetDropNoCarrier:sum(packetBytes) 0
scalar ResidenceTimeMeasurementShowcase.destination.ethernet pauseSent:count 0
scalar ResidenceTimeMeasurementShowcase.destination.ethernet pauseSent:sum 0
scalar ResidenceTimeMeasurementShowcase.destination.ethernet decapPk:count 9792
scalar ResidenceTimeMeasurementShowcase.destination.ethernet decapPk:sum(packetBytes) 12024576
scalar ResidenceTimeMeasurementShowcase.destination.ethernet encapPk:count 0
scalar ResidenceTimeMeasurementShowcase.destination.ethernet encapPk:sum(packetBytes) 0
scalar ResidenceTimeMeasurementShowcase.destination.lo[0].lo rcvdPkFromHl:count 0
scalar ResidenceTimeMeasurementShowcase.destination.lo[0].lo rcvdPkFromHl:sum(packetBytes) 0
scalar ResidenceTimeMeasurementShowcase.destination.lo[0].lo passedUpPk:count 0
scalar ResidenceTimeMeasurementShowcase.destination.lo[0].lo passedUpPk:sum(packetBytes) 0
scalar ResidenceTimeMeasurementShowcase.destination.lo[0] packetDropInterfaceDown:count 0
scalar ResidenceTimeMeasurementShowcase.destination.lo[0] packetDropInterfaceDown:sum(packetBytes) 0
scalar ResidenceTimeMeasurementShowcase.destination.lo[0] packetDropNoCarrier:count 0
scalar ResidenceTimeMeasurementShowcase.destination.lo[0] packetDropNoCarrier:sum(packetBytes) 0
scalar ResidenceTimeMeasurementShowcase.destination.eth[0].queue queueLength:last 0
scalar ResidenceTimeMeasurementShowcase.destination.eth[0].queue queueLength:max 0
scalar ResidenceTimeMeasurementShowcase.destination.eth[0].queue queueLength:timeavg 0
scalar ResidenceTimeMeasurementShowcase.destination.eth[0].queue queueBitLength:last 0
scalar ResidenceTimeMeasurementShowcase.destination.eth[0].queue queueBitLength:max 0
scalar ResidenceTimeMeasurementShowcase.destination.eth[0].queue queueBitLength:timeavg 0
scalar ResidenceTimeMeasurementShowcase.destination.eth[0].queue outgoingPackets:count 0
scalar ResidenceTimeMeasurementShowcase.destination.eth[0].queue outgoingPacketLengths:sum 0
scalar ResidenceTimeMeasurementShowcase.destination.eth[0].queue incomingPackets:count 0
scalar ResidenceTimeMeasurementShowcase.destination.eth[0].queue incomingPacketLengths:sum 0
scalar ResidenceTimeMeasurementShowcase.destination.eth[0].queue droppedPacketsQueueOverflow:count 0
scalar ResidenceTimeMeasurementShowcase.destination.eth[0].queue droppedPacketLengthsQueueOverflow:sum 0
scalar ResidenceTimeMeasurementShowcase.destination.eth[0].mac "simulated time" 1
scalar ResidenceTimeMeasurementShowcase.destination.eth[0].mac full-duplex 1
scalar ResidenceTimeMeasurementShowcase.destination.eth[0].mac "frames/sec sent" 0
scalar ResidenceTimeMeasurementShowcase.destination.eth[0].mac "frames/sec rcvd" 9792
scalar ResidenceTimeMeasurementShowcase.destination.eth[0].mac "bits/sec sent" 0
scalar ResidenceTimeMeasurementShowcase.destination.eth[0].mac "bits/sec rcvd" 97606656
scalar ResidenceTimeMeasurementShowcase.destination.eth[0].mac "rx channel idle (%)" 1.766656
scalar ResidenceTimeMeasurementShowcase.destination.eth[0].mac "rx channel utilization (%)" 98.233344
scalar ResidenceTimeMeasurementShowcase.destination.eth[0].mac rxPausePkUnits:count 0
scalar ResidenceTimeMeasurementShowcase.destination.eth[0].mac rxPausePkUnits:sum 0
scalar ResidenceTimeMeasurementShowcase.destination.eth[0].mac txPausePkUnits:count 0
scalar ResidenceTimeMeasurementShowcase.destination.eth[0].mac txPausePkUnits:sum 0
scalar ResidenceTimeMeasurementShowcase.destination.eth[0].mac rxPkOk:count 9792
scalar ResidenceTimeMeasurementShowcase.destination.eth[0].mac rxPkOk:sum(packetBytes) 12200832
scalar ResidenceTimeMeasurementShowcase.destination.eth[0].mac txPk:count 0
scalar ResidenceTimeMeasurementShowcase.destination.eth[0].mac txPk:sum(packetBytes) 0
scalar ResidenceTimeMeasurementShowcase.destination.eth[0].mac packetReceivedFromUpper:count 0
scalar ResidenceTimeMeasurementShowcase.destination.eth[0].mac packetReceivedFromUpper:sum(packetBytes) 0
scalar ResidenceTimeMeasurementShowcase.destination.eth[0].mac passedUpPk:count 9792
scalar ResidenceTimeMeasurementShowcase.destination.eth[0].mac passedUpPk:sum(packetBytes) 12200832
scalar ResidenceTimeMeasurementShowcase.destination.eth[0].mac packetDropIncorrectlyReceived:count 0
scalar ResidenceTimeMeasurementShowcase.destination.eth[0].mac packetDropIncorrectlyReceived:sum(packetBytes) 0
scalar ResidenceTimeMeasurementShowcase.destination.eth[0].mac packetDropInterfaceDown:count 0
scalar ResidenceTimeMeasurementShowcase.destination.eth[0].mac packetDropInterfaceDown:sum(packetBytes) 0
scalar ResidenceTimeMeasurementShowcase.destination.eth[0].mac packetDropNotAddressedToUs:count 0
scalar ResidenceTimeMeasurementShowcase.destination.eth[0].mac packetDropNotAddressedToUs:sum(packetBytes) 0
scalar ResidenceTimeMeasurementShowcase.destination.eth[0] packetDropInterfaceDown:count 0
scalar ResidenceTimeMeasurementShowcase.destination.eth[0] packetDropInterfaceDown:sum(packetBytes) 0
scalar ResidenceTimeMeasurementShowcase.destination.eth[0] packetDropNoCarrier:count 0
scalar ResidenceTimeMeasurementShowcase.destination.eth[0] packetDropNoCarrier:sum(packetBytes) 0
scalar ResidenceTimeMeasurementShowcase.destination.ipv4.ip packetDropAddressResolutionFailed:count 0
scalar ResidenceTimeMeasurementShowcase.destination.ipv4.ip packetDropAddressResolutionFailed:sum(packetBytes) 0
scalar ResidenceTimeMeasurementShowcase.destination.ipv4.ip packetDropHopLimitReached:count 0
scalar ResidenceTimeMeasurementShowcase.destination.ipv4.ip packetDropHopLimitReached:sum(packetBytes) 0
scalar ResidenceTimeMeasurementShowcase.destination.ipv4.ip packetDropForwardingDisabled:count 0
scalar ResidenceTimeMeasurementShowcase.destination.ipv4.ip packetDropForwardingDisabled:sum(packetBytes) 0
scalar ResidenceTimeMeasurementShowcase.destination.ipv4.ip packetDropLifetimeExpired:count 0
scalar ResidenceTimeMeasurementShowcase.destination.ipv4.ip packetDropLifetimeExpired:sum(packetBytes) 0
scalar ResidenceTimeMeasurementShowcase.destination.ipv4.ip packetDropNoInterfaceFound:count 0
scalar ResidenceTimeMeasurementShowcase.destination.ipv4.ip packetDropNoInterfaceFound:sum(packetBytes) 0
scalar ResidenceTimeMeasurementShowcase.destination.ipv4.ip packetDropNoRouteFound:count 0
scalar ResidenceTimeMeasurementShowcase.destination.ipv4.ip packetDropNoRouteFound:sum(packetBytes) 0
scalar ResidenceTimeMeasurementShowcase.destination.ipv4.ip packetDropUndefined:count 0
scalar ResidenceTimeMeasurementShowcase.destination.ipv4.ip packetDropUndefined:sum(packetBytes) 0
scalar ResidenceTimeMeasurementShowcase.destination.udp packetReceived:count 9792
scalar ResidenceTimeMeasurementShowcase.destination.udp packetReceived:sum(packetBytes) 11828736
scalar ResidenceTimeMeasurementShowcase.destination.udp packetSent:count 0
scalar ResidenceTimeMeasurementShowcase.destination.udp packetSent:sum(packetBytes) 0
scalar ResidenceTimeMeasurementShowcase.destination.udp passedUpPk:count 9792
scalar ResidenceTimeMeasurementShowcase.destination.udp droppedPkWrongPort:count 0
scalar ResidenceTimeMeasurementShowcase.destination.udp droppedPkBadChecksum:count 0
scalar ResidenceTimeMeasurementShowcase.destination.app[0].sink packets:count 9792
scalar ResidenceTimeMeasurementShowcase.destination.app[0].sink packetLengths:sum 94003200
scalar ResidenceTimeMeasurementShowcase.destination.app[0].sink droppedPackets:count 9792
scalar ResidenceTimeMeasurementShowcase.destination.app[0].sink droppedPacketLengths:sum 94003200
scalar ResidenceTimeMeasurementShowcase.destination.app[0].io "packets sent" 0
scalar ResidenceTimeMeasurementShowcase.destination.app[0].io "packets received" 9792
scalar ResidenceTimeMeasurementShowcase.destination.app[0].io packetReceived:count 9792
scalar ResidenceTimeMeasurementShowcase.destination.app[0].io packetReceived:sum(packetBytes) 11750400
scalar ResidenceTimeMeasurementShowcase.destination.app[0].io packetSent:count 0
scalar ResidenceTimeMeasurementShowcase.destination.app[0].io packetSent:sum(packetBytes) 0
scalar ResidenceTimeMeasurementShowcase.source.measurer meanBitResidenceTimePerPacket:histogram:count 9962
scalar ResidenceTimeMeasurementShowcase.source.measurer meanBitResidenceTimePerPacket:histogram:sumweights 9962
scalar ResidenceTimeMeasurementShowcase.source.measurer meanBitResidenceTimePerPacket:histogram:mean 5.7153508532423e-07
scalar ResidenceTimeMeasurementShowcase.source.measurer meanBitResidenceTimePerPacket:histogram:stddev 2.1043648619739e-06
scalar ResidenceTimeMeasurementShowcase.source.measurer meanBitResidenceTimePerPacket:histogram:min 0
scalar ResidenceTimeMeasurementShowcase.source.measurer meanBitResidenceTimePerPacket:histogram:max 2.5511333e-05
scalar ResidenceTimeMeasurementShowcase.source.measurer meanBitResidenceTimePerPacket:histogram:numbins 64
scalar ResidenceTimeMeasurementShowcase.source.measurer meanBitResidenceTimePerPacket:histogram:rangemin 0
scalar ResidenceTimeMeasurementShowcase.source.measurer meanBitResidenceTimePerPacket:histogram:rangemax 2.56e-05
scalar ResidenceTimeMeasurementShowcase.source.measurer meanBitResidenceTimePerPacket:histogram:underflows 0
scalar ResidenceTimeMeasurementShowcase.source.measurer meanBitResidenceTimePerPacket:histogram:overflows 0
scalar ResidenceTimeMeasurementShowcase.source.measurer flowMeanBitResidenceTimePerPacket:histogram:count 0
scalar ResidenceTimeMeasurementShowcase.source.measurer flowMeanBitResidenceTimePerPacket:histogram:sumweights 0
scalar ResidenceTimeMeasurementShowcase.source.measurer flowMeanBitResidenceTimePerPacket:histogram:mean -nan
scalar ResidenceTimeMeasurementShowcase.source.measurer flowMeanBitResidenceTimePerPacket:histogram:stddev nan
scalar ResidenceTimeMeasurementShowcase.source.measurer flowMeanBitResidenceTimePerPacket:histogram:min nan
scalar ResidenceTimeMeasurementShowcase.source.measurer flowMeanBitResidenceTimePerPacket:histogram:max nan
scalar ResidenceTimeMeasurementShowcase.source.measurer flowMeanBitResidenceTimePerPacket:histogram:numbins 1
scalar ResidenceTimeMeasurementShowcase.source.measurer flowMeanBitResidenceTimePerPacket:histogram:rangemin 0
scalar ResidenceTimeMeasurementShowcase.source.measurer flowMeanBitResidenceTimePerPacket:histogram:rangemax 1
scalar ResidenceTimeMeasurementShowcase.source.measurer flowMeanBitResidenceTimePerPacket:histogram:underflows 0
scalar ResidenceTimeMeasurementShowcase.source.measurer flowMeanBitResidenceTimePerPacket:histogram:overflows 0
scalar ResidenceTimeMeasurementShowcase.source.eth[0].queue queueingTime:histogram:count 9962
scalar ResidenceTimeMeasurementShowcase.source.eth[0].queue queueingTime:histogram:sumweights 9962
scalar ResidenceTimeMeasurementShowcase.source.eth[0].queue queueingTime:histogram:mean 5.7153508532423e-07
scalar ResidenceTimeMeasurementShowcase.source.eth[0].queue queueingTime:histogram:stddev 2.1043648619739e-06
scalar ResidenceTimeMeasurementShowcase.source.eth[0].queue queueingTime:histogram:min 0
scalar ResidenceTimeMeasurementShowcase.source.eth[0].queue queueingTime:histogram:max 2.5511333e-05
scalar ResidenceTimeMeasurementShowcase.source.eth[0].queue queueingTime:histogram:numbins 64
scalar ResidenceTimeMeasurementShowcase.source.eth[0].queue queueingTime:histogram:rangemin 0
scalar ResidenceTimeMeasurementShowcase.source.eth[0].queue queueingTime:histogram:rangemax 2.56e-05
scalar ResidenceTimeMeasurementShowcase.source.eth[0].queue queueingTime:histogram:underflows 0
scalar ResidenceTimeMeasurementShowcase.source.eth[0].queue queueingTime:histogram:overflows 0
scalar ResidenceTimeMeasurementShowcase.source.eth[0].queue outgoingPacketLengths:histogram:count 9962
scalar ResidenceTimeMeasurementShowcase.source.eth[0].queue outgoingPacketLengths:histogram:sumweights 9962
scalar ResidenceTimeMeasurementShowcase.source.eth[0].queue outgoingPacketLengths:histogram:mean 9968
scalar ResidenceTimeMeasurementShowcase.source.eth[0].queue outgoingPacketLengths:histogram:stddev 0
scalar ResidenceTimeMeasurementShowcase.source.eth[0].queue outgoingPacketLengths:histogram:min 9968
scalar ResidenceTimeMeasurementShowcase.source.eth[0].queue outgoingPacketLengths:histogram:max 9968
scalar ResidenceTimeMeasurementShowcase.source.eth[0].queue outgoingPacketLengths:histogram:numbins 2
scalar ResidenceTimeMeasurementShowcase.source.eth[0].queue outgoingPacketLengths:histogram:rangemin 9967
scalar ResidenceTimeMeasurementShowcase.source.eth[0].queue outgoingPacketLengths:histogram:rangemax 9969
scalar ResidenceTimeMeasurementShowcase.source.eth[0].queue outgoingPacketLengths:histogram:underflows 0
scalar ResidenceTimeMeasurementShowcase.source.eth[0].queue outgoingPacketLengths:histogram:overflows 0
scalar ResidenceTimeMeasurementShowcase.source.eth[0].queue flowQueueingTime:histogram:count 0
scalar ResidenceTimeMeasurementShowcase.source.eth[0].queue flowQueueingTime:histogram:sumweights 0
scalar ResidenceTimeMeasurementShowcase.source.eth[0].queue flowQueueingTime:histogram:mean -nan
scalar ResidenceTimeMeasurementShowcase.source.eth[0].queue flowQueueingTime:histogram:stddev nan
scalar ResidenceTimeMeasurementShowcase.source.eth[0].queue flowQueueingTime:histogram:min nan
scalar ResidenceTimeMeasurementShowcase.source.eth[0].queue flowQueueingTime:histogram:max nan
scalar ResidenceTimeMeasurementShowcase.source.eth[0].queue flowQueueingTime:histogram:numbins 1
scalar ResidenceTimeMeasurementShowcase.source.eth[0].queue flowQueueingTime:histogram:rangemin 0
scalar ResidenceTimeMeasurementShowcase.source.eth[0].queue flowQueueingTime:histogram:rangemax 1
scalar ResidenceTimeMeasurementShowcase.source.eth[0].queue flowQueueingTime:histogram:underflows 0
scalar ResidenceTimeMeasurementShowcase.source.eth[0].queue flowQueueingTime:histogram:overflows 0
scalar ResidenceTimeMeasurementShowcase.source.eth[0].queue incomingPacketLengths:histogram:count 9962
scalar ResidenceTimeMeasurementShowcase.source.eth[0].queue incomingPacketLengths:histogram:sumweights 9962
scalar ResidenceTimeMeasurementShowcase.source.eth[0].queue incomingPacketLengths:histogram:mean 9968
scalar ResidenceTimeMeasurementShowcase.source.eth[0].queue incomingPacketLengths:histogram:stddev 0
scalar ResidenceTimeMeasurementShowcase.source.eth[0].queue incomingPacketLengths:histogram:min 9968
scalar ResidenceTimeMeasurementShowcase.source.eth[0].queue incomingPacketLengths:histogram:max 9968
scalar ResidenceTimeMeasurementShowcase.source.eth[0].queue incomingPacketLengths:histogram:numbins 2
scalar ResidenceTimeMeasurementShowcase.source.eth[0].queue incomingPacketLengths:histogram:rangemin 9967
scalar ResidenceTimeMeasurementShowcase.source.eth[0].queue incomingPacketLengths:histogram:rangemax 9969
scalar ResidenceTimeMeasurementShowcase.source.eth[0].queue incomingPacketLengths:histogram:underflows 0
scalar ResidenceTimeMeasurementShowcase.source.eth[0].queue incomingPacketLengths:histogram:overflows 0
scalar ResidenceTimeMeasurementShowcase.source.eth[0].mac throughput:histogram:count 100
scalar ResidenceTimeMeasurementShowcase.source.eth[0].mac throughput:histogram:sumweights 100
scalar ResidenceTimeMeasurementShowcase.source.eth[0].mac throughput:histogram:mean 100802907.22659
scalar ResidenceTimeMeasurementShowcase.source.eth[0].mac throughput:histogram:stddev 9496130.8205552
scalar ResidenceTimeMeasurementShowcase.source.eth[0].mac throughput:histogram:min 82070848.966043
scalar ResidenceTimeMeasurementShowcase.source.eth[0].mac throughput:histogram:max 122867742.29075
scalar ResidenceTimeMeasurementShowcase.source.eth[0].mac throughput:histogram:numbins 59
scalar ResidenceTimeMeasurementShowcase.source.eth[0].mac throughput:histogram:rangemin 72000000
scalar ResidenceTimeMeasurementShowcase.source.eth[0].mac throughput:histogram:rangemax 131000000
scalar ResidenceTimeMeasurementShowcase.source.eth[0].mac throughput:histogram:underflows 0
scalar ResidenceTimeMeasurementShowcase.source.eth[0].mac throughput:histogram:overflows 0
scalar ResidenceTimeMeasurementShowcase.source.eth[0].mac utilization:histogram:count 100
scalar ResidenceTimeMeasurementShowcase.source.eth[0].mac utilization:histogram:sumweights 100
scalar ResidenceTimeMeasurementShowcase.source.eth[0].mac utilization:histogram:mean 10.077506483342
scalar ResidenceTimeMeasurementShowcase.source.eth[0].mac utilization:histogram:stddev 0.93365622721433
scalar ResidenceTimeMeasurementShowcase.source.eth[0].mac utilization:histogram:min 8.1838732962614
scalar ResidenceTimeMeasurementShowcase.source.eth[0].mac utilization:histogram:max 12.388057646935
scalar ResidenceTimeMeasurementShowcase.source.eth[0].mac utilization:histogram:numbins 59
scalar ResidenceTimeMeasurementShowcase.source.eth[0].mac utilization:histogram:rangemin 7.2
scalar ResidenceTimeMeasurementShowcase.source.eth[0].mac utilization:histogram:rangemax 13.1
scalar ResidenceTimeMeasurementShowcase.source.eth[0].mac utilization:histogram:underflows 0
scalar ResidenceTimeMeasurementShowcase.source.eth[0].mac utilization:histogram:overflows 0
scalar ResidenceTimeMeasurementShowcase.source.app[0].source packetLengths:histogram:count 9962
scalar ResidenceTimeMeasurementShowcase.source.app[0].source packetLengths:histogram:sumweights 9962
scalar ResidenceTimeMeasurementShowcase.source.app[0].source packetLengths:histogram:mean 9600
scalar ResidenceTimeMeasurementShowcase.source.app[0].source packetLengths:histogram:stddev 0
scalar ResidenceTimeMeasurementShowcase.source.app[0].source packetLengths:histogram:min 9600
scalar ResidenceTimeMeasurementShowcase.source.app[0].source packetLengths:histogram:max 9600
scalar ResidenceTimeMeasurementShowcase.source.app[0].source packetLengths:histogram:numbins 2
scalar ResidenceTimeMeasurementShowcase.source.app[0].source packetLengths:histogram:rangemin 9599
scalar ResidenceTimeMeasurementShowcase.source.app[0].source packetLengths:histogram:rangemax 9601
scalar ResidenceTimeMeasurementShowcase.source.app[0].source packetLengths:histogram:underflows 0
scalar ResidenceTimeMeasurementShowcase.source.app[0].source packetLengths:histogram:overflows 0
scalar ResidenceTimeMeasurementShowcase.switch.measurer meanBitResidenceTimePerPacket:histogram:count 9793
scalar ResidenceTimeMeasurementShowcase.switch.measurer meanBitResidenceTimePerPacket:histogram:sumweights 9793
scalar ResidenceTimeMeasurementShowcase.switch.measurer meanBitResidenceTimePerPacket:histogram:mean 0.0038908966778726
scalar ResidenceTimeMeasurementShowcase.switch.measurer meanBitResidenceTimePerPacket:histogram:stddev 0.004482235020536
scalar ResidenceTimeMeasurementShowcase.switch.measurer meanBitResidenceTimePerPacket:histogram:min 0
scalar ResidenceTimeMeasurementShowcase.switch.measurer meanBitResidenceTimePerPacket:histogram:max 0.019795355531
scalar ResidenceTimeMeasurementShowcase.switch.measurer meanBitResidenceTimePerPacket:histogram:numbins 62
scalar ResidenceTimeMeasurementShowcase.switch.measurer meanBitResidenceTimePerPacket:histogram:rangemin 0
scalar ResidenceTimeMeasurementShowcase.switch.measurer meanBitResidenceTimePerPacket:histogram:rangemax 0.01984
scalar ResidenceTimeMeasurementShowcase.switch.measurer meanBitResidenceTimePerPacket:histogram:underflows 0
scalar ResidenceTimeMeasurementShowcase.switch.measurer meanBitResidenceTimePerPacket:histogram:overflows 0
scalar ResidenceTimeMeasurementShowcase.switch.measurer flowMeanBitResidenceTimePerPacket:histogram:count 0
scalar ResidenceTimeMeasurementShowcase.switch.measurer flowMeanBitResidenceTimePerPacket:histogram:sumweights 0
scalar ResidenceTimeMeasurementShowcase.switch.measurer flowMeanBitResidenceTimePerPacket:histogram:mean -nan
scalar ResidenceTimeMeasurementShowcase.switch.measurer flowMeanBitResidenceTimePerPacket:histogram:stddev nan
scalar ResidenceTimeMeasurementShowcase.switch.measurer flowMeanBitResidenceTimePerPacket:histogram:min nan
scalar ResidenceTimeMeasurementShowcase.switch.measurer flowMeanBitResidenceTimePerPacket:histogram:max nan
scalar ResidenceTimeMeasurementShowcase.switch.measurer flowMeanBitResidenceTimePerPacket:histogram:numbins 1
scalar ResidenceTimeMeasurementShowcase.switch.measurer flowMeanBitResidenceTimePerPacket:histogram:rangemin 0
scalar ResidenceTimeMeasurementShowcase.switch.measurer flowMeanBitResidenceTimePerPacket:histogram:rangemax 1
scalar ResidenceTimeMeasurementShowcase.switch.measurer flowMeanBitResidenceTimePerPacket:histogram:underflows 0
scalar ResidenceTimeMeasurementShowcase.switch.measurer flowMeanBitResidenceTimePerPacket:histogram:overflows 0
scalar ResidenceTimeMeasurementShowcase.switch.eth[0].queue queueingTime:histogram:count 0
scalar ResidenceTimeMeasurementShowcase.switch.eth[0].queue queueingTime:histogram:sumweights 0
scalar ResidenceTimeMeasurementShowcase.switch.eth[0].queue queueingTime:histogram:mean -nan
scalar ResidenceTimeMeasurementShowcase.switch.eth[0].queue queueingTime:histogram:stddev nan
scalar ResidenceTimeMeasurementShowcase.switch.eth[0].queue queueingTime:histogram:min nan
scalar ResidenceTimeMeasurementShowcase.switch.eth[0].queue queueingTime:histogram:max nan
scalar ResidenceTimeMeasurementShowcase.switch.eth[0].queue queueingTime:histogram:numbins 1
scalar ResidenceTimeMeasurementShowcase.switch.eth[0].queue queueingTime:histogram:rangemin 0
scalar ResidenceTimeMeasurementShowcase.switch.eth[0].queue queueingTime:histogram:rangemax 1
scalar ResidenceTimeMeasurementShowcase.switch.eth[0].queue queueingTime:histogram:underflows 0
scalar ResidenceTimeMeasurementShowcase.switch.eth[0].queue queueingTime:histogram:overflows 0
scalar ResidenceTimeMeasurementShowcase.switch.eth[0].queue outgoingPacketLengths:histogram:count 0
scalar ResidenceTimeMeasurementShowcase.switch.eth[0].queue outgoingPacketLengths:histogram:sumweights 0
scalar ResidenceTimeMeasurementShowcase.switch.eth[0].queue outgoingPacketLengths:histogram:mean -nan
scalar ResidenceTimeMeasurementShowcase.switch.eth[0].queue outgoingPacketLengths:histogram:stddev nan
scalar ResidenceTimeMeasurementShowcase.switch.eth[0].queue outgoingPacketLengths:histogram:min nan
scalar ResidenceTimeMeasurementShowcase.switch.eth[0].queue outgoingPacketLengths:histogram:max nan
scalar ResidenceTimeMeasurementShowcase.switch.eth[0].queue outgoingPacketLengths:histogram:numbins 1
scalar ResidenceTimeMeasurementShowcase.switch.eth[0].queue outgoingPacketLengths:histogram:rangemin 0
scalar ResidenceTimeMeasurementShowcase.switch.eth[0].queue outgoingPacketLengths:histogram:rangemax 1
scalar ResidenceTimeMeasurementShowcase.switch.eth[0].queue outgoingPacketLengths:histogram:underflows 0
scalar ResidenceTimeMeasurementShowcase.switch.eth[0].queue outgoingPacketLengths:histogram:overflows 0
scalar ResidenceTimeMeasurementShowcase.switch.eth[0].queue flowQueueingTime:histogram:count 0
scalar ResidenceTimeMeasurementShowcase.switch.eth[0].queue flowQueueingTime:histogram:sumweights 0
scalar ResidenceTimeMeasurementShowcase.switch.eth[0].queue flowQueueingTime:histogram:mean -nan
scalar ResidenceTimeMeasurementShowcase.switch.eth[0].queue flowQueueingTime:histogram:stddev nan
scalar ResidenceTimeMeasurementShowcase.switch.eth[0].queue flowQueueingTime:histogram:min nan
scalar ResidenceTimeMeasurementShowcase.switch.eth[0].queue flowQueueingTime:histogram:max nan
scalar ResidenceTimeMeasurementShowcase.switch.eth[0].queue flowQueueingTime:histogram:numbins 1
scalar ResidenceTimeMeasurementShowcase.switch.eth[0].queue flowQueueingTime:histogram:rangemin 0
scalar ResidenceTimeMeasurementShowcase.switch.eth[0].queue flowQueueingTime:histogram:rangemax 1
scalar ResidenceTimeMeasurementShowcase.switch.eth[0].queue flowQueueingTime:histogram:underflows 0
scalar ResidenceTimeMeasurementShowcase.switch.eth[0].queue flowQueueingTime:histogram:overflows 0
scalar ResidenceTimeMeasurementShowcase.switch.eth[0].queue incomingPacketLengths:histogram:count 0
scalar ResidenceTimeMeasurementShowcase.switch.eth[0].queue incomingPacketLengths:histogram:sumweights 0
scalar ResidenceTimeMeasurementShowcase.switch.eth[0].queue incomingPacketLengths:histogram:mean -nan
scalar ResidenceTimeMeasurementShowcase.switch.eth[0].queue incomingPacketLengths:histogram:stddev nan
scalar ResidenceTimeMeasurementShowcase.switch.eth[0].queue incomingPacketLengths:histogram:min nan
scalar ResidenceTimeMeasurementShowcase.switch.eth[0].queue incomingPacketLengths:histogram:max nan
scalar ResidenceTimeMeasurementShowcase.switch.eth[0].queue incomingPacketLengths:histogram:numbins 1
scalar ResidenceTimeMeasurementShowcase.switch.eth[0].queue incomingPacketLengths:histogram:rangemin 0
scalar ResidenceTimeMeasurementShowcase.switch.eth[0].queue incomingPacketLengths:histogram:rangemax 1
scalar ResidenceTimeMeasurementShowcase.switch.eth[0].queue incomingPacketLengths:histogram:underflows 0
scalar ResidenceTimeMeasurementShowcase.switch.eth[0].queue incomingPacketLengths:histogram:overflows 0
scalar ResidenceTimeMeasurementShowcase.switch.eth[0].mac throughput:histogram:count 10
scalar ResidenceTimeMeasurementShowcase.switch.eth[0].mac throughput:histogram:sumweights 10
scalar ResidenceTimeMeasurementShowcase.switch.eth[0].mac throughput:histogram:mean 0
scalar ResidenceTimeMeasurementShowcase.switch.eth[0].mac throughput:histogram:stddev 0
scalar ResidenceTimeMeasurementShowcase.switch.eth[0].mac throughput:histogram:min 0
scalar ResidenceTimeMeasurementShowcase.switch.eth[0].mac throughput:histogram:max 0
scalar ResidenceTimeMeasurementShowcase.switch.eth[0].mac throughput:histogram:numbins 50
scalar ResidenceTimeMeasurementShowcase.switch.eth[0].mac throughput:histogram:rangemin -0.5
scalar ResidenceTimeMeasurementShowcase.switch.eth[0].mac throughput:histogram:rangemax 0.5
scalar ResidenceTimeMeasurementShowcase.switch.eth[0].mac throughput:histogram:underflows 0
scalar ResidenceTimeMeasurementShowcase.switch.eth[0].mac throughput:histogram:overflows 0
scalar ResidenceTimeMeasurementShowcase.switch.eth[0].mac utilization:histogram:count 10
scalar ResidenceTimeMeasurementShowcase.switch.eth[0].mac utilization:histogram:sumweights 10
scalar ResidenceTimeMeasurementShowcase.switch.eth[0].mac utilization:histogram:mean 0
scalar ResidenceTimeMeasurementShowcase.switch.eth[0].mac utilization:histogram:stddev 0
scalar ResidenceTimeMeasurementShowcase.switch.eth[0].mac utilization:histogram:min 0
scalar ResidenceTimeMeasurementShowcase.switch.eth[0].mac utilization:histogram:max 0
scalar ResidenceTimeMeasurementShowcase.switch.eth[0].mac utilization:histogram:numbins 50
scalar ResidenceTimeMeasurementShowcase.switch.eth[0].mac utilization:histogram:rangemin -0.5
scalar ResidenceTimeMeasurementShowcase.switch.eth[0].mac utilization:histogram:rangemax 0.5
scalar ResidenceTimeMeasurementShowcase.switch.eth[0].mac utilization:histogram:underflows 0
scalar ResidenceTimeMeasurementShowcase.switch.eth[0].mac utilization:histogram:overflows 0
scalar ResidenceTimeMeasurementShowcase.switch.eth[1].queue queueingTime:histogram:count 9793
scalar ResidenceTimeMeasurementShowcase.switch.eth[1].queue queueingTime:histogram:sumweights 9793
scalar ResidenceTimeMeasurementShowcase.switch.eth[1].queue queueingTime:histogram:mean 0.0038908966778726
scalar ResidenceTimeMeasurementShowcase.switch.eth[1].queue queueingTime:histogram:stddev 0.004482235020536
scalar ResidenceTimeMeasurementShowcase.switch.eth[1].queue queueingTime:histogram:min 0
scalar ResidenceTimeMeasurementShowcase.switch.eth[1].queue queueingTime:histogram:max 0.019795355531
scalar ResidenceTimeMeasurementShowcase.switch.eth[1].queue queueingTime:histogram:numbins 62
scalar ResidenceTimeMeasurementShowcase.switch.eth[1].queue queueingTime:histogram:rangemin 0
scalar ResidenceTimeMeasurementShowcase.switch.eth[1].queue queueingTime:histogram:rangemax 0.01984
scalar ResidenceTimeMeasurementShowcase.switch.eth[1].queue queueingTime:histogram:underflows 0
scalar ResidenceTimeMeasurementShowcase.switch.eth[1].queue queueingTime:histogram:overflows 0
scalar ResidenceTimeMeasurementShowcase.switch.eth[1].queue outgoingPacketLengths:histogram:count 9793
scalar ResidenceTimeMeasurementShowcase.switch.eth[1].queue outgoingPacketLengths:histogram:sumweights 9793
scalar ResidenceTimeMeasurementShowcase.switch.eth[1].queue outgoingPacketLengths:histogram:mean 9968
scalar ResidenceTimeMeasurementShowcase.switch.eth[1].queue outgoingPacketLengths:histogram:stddev 0
scalar ResidenceTimeMeasurementShowcase.switch.eth[1].queue outgoingPacketLengths:histogram:min 9968
scalar ResidenceTimeMeasurementShowcase.switch.eth[1].queue outgoingPacketLengths:histogram:max 9968
scalar ResidenceTimeMeasurementShowcase.switch.eth[1].queue outgoingPacketLengths:histogram:numbins 2
scalar ResidenceTimeMeasurementShowcase.switch.eth[1].queue outgoingPacketLengths:histogram:rangemin 9967
scalar ResidenceTimeMeasurementShowcase.switch.eth[1].queue outgoingPacketLengths:histogram:rangemax 9969
scalar ResidenceTimeMeasurementShowcase.switch.eth[1].queue outgoingPacketLengths:histogram:underflows 0
scalar ResidenceTimeMeasurementShowcase.switch.eth[1].queue outgoingPacketLengths:histogram:overflows 0
scalar ResidenceTimeMeasurementShowcase.switch.eth[1].queue flowQueueingTime:histogram:count 0
scalar ResidenceTimeMeasurementShowcase.switch.eth[1].queue flowQueueingTime:histogram:sumweights 0
scalar ResidenceTimeMeasurementShowcase.switch.eth[1].queue flowQueueingTime:histogram:mean -nan
scalar ResidenceTimeMeasurementShowcase.switch.eth[1].queue flowQueueingTime:histogram:stddev nan
scalar ResidenceTimeMeasurementShowcase.switch.eth[1].queue flowQueueingTime:histogram:min nan
scalar ResidenceTimeMeasurementShowcase.switch.eth[1].queue flowQueueingTime:histogram:max nan
scalar ResidenceTimeMeasurementShowcase.switch.eth[1].queue flowQueueingTime:histogram:numbins 1
scalar ResidenceTimeMeasurementShowcase.switch.eth[1].queue flowQueueingTime:histogram:rangemin 0
scalar ResidenceTimeMeasurementShowcase.switch.eth[1].queue flowQueueingTime:histogram:rangemax 1
scalar ResidenceTimeMeasurementShowcase.switch.eth[1].queue flowQueueingTime:histogram:underflows 0
scalar ResidenceTimeMeasurementShowcase.switch.eth[1].queue flowQueueingTime:histogram:overflows 0
scalar ResidenceTimeMeasurementShowcase.switch.eth[1].queue incomingPacketLengths:histogram:count 9962
scalar ResidenceTimeMeasurementShowcase.switch.eth[1].queue incomingPacketLengths:histogram:sumweights 9962
scalar ResidenceTimeMeasurementShowcase.switch.eth[1].queue incomingPacketLengths:histogram:mean 9968
scalar ResidenceTimeMeasurementShowcase.switch.eth[1].queue incomingPacketLengths:histogram:stddev 0
scalar ResidenceTimeMeasurementShowcase.switch.eth[1].queue incomingPacketLengths:histogram:min 9968
scalar ResidenceTimeMeasurementShowcase.switch.eth[1].queue incomingPacketLengths:histogram:max 9968
scalar ResidenceTimeMeasurementShowcase.switch.eth[1].queue incomingPacketLengths:histogram:numbins 2
scalar ResidenceTimeMeasurementShowcase.switch.eth[1].queue incomingPacketLengths:histogram:rangemin 9967
scalar ResidenceTimeMeasurementShowcase.switch.eth[1].queue incomingPacketLengths:histogram:rangemax 9969
scalar ResidenceTimeMeasurementShowcase.switch.eth[1].queue incomingPacketLengths:histogram:underflows 0
scalar ResidenceTimeMeasurementShowcase.switch.eth[1].queue incomingPacketLengths:histogram:overflows 0
scalar ResidenceTimeMeasurementShowcase.switch.eth[1].mac throughput:histogram:count 98
scalar ResidenceTimeMeasurementShowcase.switch.eth[1].mac throughput:histogram:sumweights 98
scalar ResidenceTimeMeasurementShowcase.switch.eth[1].mac throughput:histogram:mean 98276812.009799
scalar ResidenceTimeMeasurementShowcase.switch.eth[1].mac throughput:histogram:stddev 1999344.6676392
scalar ResidenceTimeMeasurementShowcase.switch.eth[1].mac throughput:histogram:min 87892695.793716
scalar ResidenceTimeMeasurementShowcase.switch.eth[1].mac throughput:histogram:max 99052132.701422
scalar ResidenceTimeMeasurementShowcase.switch.eth[1].mac throughput:histogram:numbins 85
scalar ResidenceTimeMeasurementShowcase.switch.eth[1].mac throughput:histogram:rangemin 85000000
scalar ResidenceTimeMeasurementShowcase.switch.eth[1].mac throughput:histogram:rangemax 102000000
scalar ResidenceTimeMeasurementShowcase.switch.eth[1].mac throughput:histogram:underflows 0
scalar ResidenceTimeMeasurementShowcase.switch.eth[1].mac throughput:histogram:overflows 0
scalar ResidenceTimeMeasurementShowcase.switch.eth[1].mac utilization:histogram:count 98
scalar ResidenceTimeMeasurementShowcase.switch.eth[1].mac utilization:histogram:sumweights 98
scalar ResidenceTimeMeasurementShowcase.switch.eth[1].mac utilization:histogram:mean 98.27777718215
scalar ResidenceTimeMeasurementShowcase.switch.eth[1].mac utilization:histogram:stddev 2.0264533623186
scalar ResidenceTimeMeasurementShowcase.switch.eth[1].mac utilization:histogram:min 87.892695793716
scalar ResidenceTimeMeasurementShowcase.switch.eth[1].mac utilization:histogram:max 99.052132701422
scalar ResidenceTimeMeasurementShowcase.switch.eth[1].mac utilization:histogram:numbins 85
scalar ResidenceTimeMeasurementShowcase.switch.eth[1].mac utilization:histogram:rangemin 85
scalar ResidenceTimeMeasurementShowcase.switch.eth[1].mac utilization:histogram:rangemax 102
scalar ResidenceTimeMeasurementShowcase.switch.eth[1].mac utilization:histogram:underflows 0
scalar ResidenceTimeMeasurementShowcase.switch.eth[1].mac utilization:histogram:overflows 0
scalar ResidenceTimeMeasurementShowcase.destination.measurer meanBitResidenceTimePerPacket:histogram:count 9792
scalar ResidenceTimeMeasurementShowcase.destination.measurer meanBitResidenceTimePerPacket:histogram:sumweights 9792
scalar ResidenceTimeMeasurementShowcase.destination.measurer meanBitResidenceTimePerPacket:histogram:mean 0
scalar ResidenceTimeMeasurementShowcase.destination.measurer meanBitResidenceTimePerPacket:histogram:stddev 0
scalar ResidenceTimeMeasurementShowcase.destination.measurer meanBitResidenceTimePerPacket:histogram:min 0
scalar ResidenceTimeMeasurementShowcase.destination.measurer meanBitResidenceTimePerPacket:histogram:max 0
scalar ResidenceTimeMeasurementShowcase.destination.measurer meanBitResidenceTimePerPacket:histogram:numbins 50
scalar ResidenceTimeMeasurementShowcase.destination.measurer meanBitResidenceTimePerPacket:histogram:rangemin -0.5
scalar ResidenceTimeMeasurementShowcase.destination.measurer meanBitResidenceTimePerPacket:histogram:rangemax 0.5
scalar ResidenceTimeMeasurementShowcase.destination.measurer meanBitResidenceTimePerPacket:histogram:underflows 0
scalar ResidenceTimeMeasurementShowcase.destination.measurer meanBitResidenceTimePerPacket:histogram:overflows 0
scalar ResidenceTimeMeasurementShowcase.destination.measurer flowMeanBitResidenceTimePerPacket:histogram:count 0
scalar ResidenceTimeMeasurementShowcase.destination.measurer flowMeanBitResidenceTimePerPacket:histogram:sumweights 0
scalar ResidenceTimeMeasurementShowcase.destination.measurer flowMeanBitResidenceTimePerPacket:histogram:mean -nan
scalar ResidenceTimeMeasurementShowcase.destination.measurer flowMeanBitResidenceTimePerPacket:histogram:stddev nan
scalar ResidenceTimeMeasurementShowcase.destination.measurer flowMeanBitResidenceTimePerPacket:histogram:min nan
scalar ResidenceTimeMeasurementShowcase.destination.measurer flowMeanBitResidenceTimePerPacket:histogram:max nan
scalar ResidenceTimeMeasurementShowcase.destination.measurer flowMeanBitResidenceTimePerPacket:histogram:numbins 1
scalar ResidenceTimeMeasurementShowcase.destination.measurer flowMeanBitResidenceTimePerPacket:histogram:rangemin 0
scalar ResidenceTimeMeasurementShowcase.destination.measurer flowMeanBitResidenceTimePerPacket:histogram:rangemax 1
scalar ResidenceTimeMeasurementShowcase.destination.measurer flowMeanBitResidenceTimePerPacket:histogram:underflows 0
scalar ResidenceTimeMeasurementShowcase.destination.measurer flowMeanBitResidenceTimePerPacket:histogram:overflows 0
scalar ResidenceTimeMeasurementShowcase.destination.eth[0].queue queueingTime:histogram:count 0
scalar ResidenceTimeMeasurementShowcase.destination.eth[0].queue queueingTime:histogram:sumweights 0
scalar ResidenceTimeMeasurementShowcase.destination.eth[0].queue queueingTime:histogram:mean -nan
scalar ResidenceTimeMeasurementShowcase.destination.eth[0].queue queueingTime:histogram:stddev nan
scalar ResidenceTimeMeasurementShowcase.destination.eth[0].queue queueingTime:histogram:min nan
scalar ResidenceTimeMeasurementShowcase.destination.eth[0].queue queueingTime:histogram:max nan
scalar ResidenceTimeMeasurementShowcase.destination.eth[0].queue queueingTime:histogram:numbins 1
scalar ResidenceTimeMeasurementShowcase.destination.eth[0].queue queueingTime:histogram:rangemin 0
scalar ResidenceTimeMeasurementShowcase.destination.eth[0].queue queueingTime:histogram:rangemax 1
scalar ResidenceTimeMeasurementShowcase.destination.eth[0].queue queueingTime:histogram:underflows 0
scalar ResidenceTimeMeasurementShowcase.destination.eth[0].queue queueingTime:histogram:overflows 0
scalar ResidenceTimeMeasurementShowcase.destination.eth[0].queue outgoingPacketLengths:histogram:count 0
scalar ResidenceTimeMeasurementShowcase.destination.eth[0].queue outgoingPacketLengths:histogram:sumweights 0
scalar ResidenceTimeMeasurementShowcase.destination.eth[0].queue outgoingPacketLengths:histogram:mean -nan
scalar ResidenceTimeMeasurementShowcase.destination.eth[0].queue outgoingPacketLengths:histogram:stddev nan
scalar ResidenceTimeMeasurementShowcase.destination.eth[0].queue outgoingPacketLengths:histogram:min nan
scalar ResidenceTimeMeasurementShowcase.destination.eth[0].queue outgoingPacketLengths:histogram:max nan
scalar ResidenceTimeMeasurementShowcase.destination.eth[0].queue outgoingPacketLengths:histogram:numbins 1
scalar ResidenceTimeMeasurementShowcase.destination.eth[0].queue outgoingPacketLengths:histogram:rangemin 0
scalar ResidenceTimeMeasurementShowcase.destination.eth[0].queue outgoingPacketLengths:histogram:rangemax 1
scalar ResidenceTimeMeasurementShowcase.destination.eth[0].queue outgoingPacketLengths:histogram:underflows 0
scalar ResidenceTimeMeasurementShowcase.destination.eth[0].queue outgoingPacketLengths:histogram:overflows 0
scalar ResidenceTimeMeasurementShowcase.destination.eth[0].queue flowQueueingTime:histogram:count 0
scalar ResidenceTimeMeasurementShowcase.destination.eth[0].queue flowQueueingTime:histogram:sumweights 0
scalar ResidenceTimeMeasurementShowcase.destination.eth[0].queue flowQueueingTime:histogram:mean -nan
scalar ResidenceTimeMeasurementShowcase.destination.eth[0].queue flowQueueingTime:histogram:stddev nan
scalar ResidenceTimeMeasurementShowcase.destination.eth[0].queue flowQueueingTime:histogram:min nan
scalar ResidenceTimeMeasurementShowcase.destination.eth[0].queue flowQueueingTime:histogram:max nan
scalar ResidenceTimeMeasurementShowcase.destination.eth[0].queue flowQueueingTime:histogram:numbins 1
scalar ResidenceTimeMeasurementShowcase.destination.eth[0].queue flowQueueingTime:histogram:rangemin 0
scalar ResidenceTimeMeasurementShowcase.destination.eth[0].queue flowQueueingTime:histogram:rangemax 1
scalar ResidenceTimeMeasurementShowcase.destination.eth[0].queue flowQueueingTime:histogram:underflows 0
scalar ResidenceTimeMeasurementShowcase.destination.eth[0].queue flowQueueingTime:histogram:overflows 0
scalar ResidenceTimeMeasurementShowcase.destination.eth[0].queue incomingPacketLengths:histogram:count 0
scalar ResidenceTimeMeasurementShowcase.destination.eth[0].queue incomingPacketLengths:histogram:sumweights 0
scalar ResidenceTimeMeasurementShowcase.destination.eth[0].queue incomingPacketLengths:histogram:mean -nan
scalar ResidenceTimeMeasurementShowcase.destination.eth[0].queue incomingPacketLengths:histogram:stddev nan
scalar ResidenceTimeMeasurementShowcase.destination.eth[0].queue incomingPacketLengths:histogram:min nan
scalar ResidenceTimeMeasurementShowcase.destination.eth[0].queue incomingPacketLengths:histogram:max nan
scalar ResidenceTimeMeasurementShowcase.destination.eth[0].queue incomingPacketLengths:histogram:numbins 1
scalar ResidenceTimeMeasurementShowcase.destination.eth[0].queue incomingPacketLengths:histogram:rangemin 0
scalar ResidenceTimeMeasurementShowcase.destination.eth[0].queue incomingPacketLengths:histogram:rangemax 1
scalar ResidenceTimeMeasurementShowcase.destination.eth[0].queue incomingPacketLengths:histogram:underflows 0
scalar ResidenceTimeMeasurementShowcase.destination.eth[0].queue incomingPacketLengths:histogram:overflows 0
scalar ResidenceTimeMeasurementShowcase.destination.eth[0].mac throughput:histogram:count 10
scalar ResidenceTimeMeasurementShowcase.destination.eth[0].mac throughput:histogram:sumweights 10
scalar ResidenceTimeMeasurementShowcase.destination.eth[0].mac throughput:histogram:mean 0
scalar ResidenceTimeMeasurementShowcase.destination.eth[0].mac throughput:histogram:stddev 0
scalar ResidenceTimeMeasurementShowcase.destination.eth[0].mac throughput:histogram:min 0
scalar ResidenceTimeMeasurementShowcase.destination.eth[0].mac throughput:histogram:max 0
scalar ResidenceTimeMeasurementShowcase.destination.eth[0].mac throughput:histogram:numbins 50
scalar ResidenceTimeMeasurementShowcase.destination.eth[0].mac throughput:histogram:rangemin -0.5
scalar ResidenceTimeMeasurementShowcase.destination.eth[0].mac throughput:histogram:rangemax 0.5
scalar ResidenceTimeMeasurementShowcase.destination.eth[0].mac throughput:histogram:underflows 0
scalar ResidenceTimeMeasurementShowcase.destination.eth[0].mac throughput:histogram:overflows 0
scalar ResidenceTimeMeasurementShowcase.destination.eth[0].mac utilization:histogram:count 10
scalar ResidenceTimeMeasurementShowcase.destination.eth[0].mac utilization:histogram:sumweights 10
scalar ResidenceTimeMeasurementShowcase.destination.eth[0].mac utilization:histogram:mean 0
scalar ResidenceTimeMeasurementShowcase.destination.eth[0].mac utilization:histogram:stddev 0
scalar ResidenceTimeMeasurementShowcase.destination.eth[0].mac utilization:histogram:min 0
scalar ResidenceTimeMeasurementShowcase.destination.eth[0].mac utilization:histogram:max 0
scalar ResidenceTimeMeasurementShowcase.destination.eth[0].mac utilization:histogram:numbins 50
scalar ResidenceTimeMeasurementShowcase.destination.eth[0].mac utilization:histogram:rangemin -0.5
scalar ResidenceTimeMeasurementShowcase.destination.eth[0].mac utilization:histogram:rangemax 0.5
scalar ResidenceTimeMeasurementShowcase.destination.eth[0].mac utilization:histogram:underflows 0
scalar ResidenceTimeMeasurementShowcase.destination.eth[0].mac utilization:histogram:overflows 0
scalar ResidenceTimeMeasurementShowcase.destination.app[0].sink packetLengths:histogram:count 9792
scalar ResidenceTimeMeasurementShowcase.destination.app[0].sink packetLengths:histogram:sumweights 9792
scalar ResidenceTimeMeasurementShowcase.destination.app[0].sink packetLengths:histogram:mean 9600
scalar ResidenceTimeMeasurementShowcase.destination.app[0].sink packetLengths:histogram:stddev 0
scalar ResidenceTimeMeasurementShowcase.destination.app[0].sink packetLengths:histogram:min 9600
scalar ResidenceTimeMeasurementShowcase.destination.app[0].sink packetLengths:histogram:max 9600
scalar ResidenceTimeMeasurementShowcase.destination.app[0].sink packetLengths:histogram:numbins 2
scalar ResidenceTimeMeasurementShowcase.destination.app[0].sink packetLengths:histogram:rangemin 9599
scalar ResidenceTimeMeasurementShowcase.destination.app[0].sink packetLengths:histogram:rangemax 9601
scalar ResidenceTimeMeasurementShowcase.destination.app[0].sink packetLengths:histogram:underflows 0
scalar ResidenceTimeMeasurementShowcase.destination.app[0].sink packetLengths:histogram:overflows 0
scalar ResidenceTimeMeasurementShowcase.destination.app[0].sink meanBitLifeTimePerPacket:histogram:count 9792
scalar ResidenceTimeMeasurementShowcase.destination.app[0].sink meanBitLifeTimePerPacket:histogram:sumweights 9792
scalar ResidenceTimeMeasurementShowcase.destination.app[0].sink meanBitLifeTimePerPacket:histogram:mean 0.0040004345987839
scalar ResidenceTimeMeasurementShowcase.destination.app[0].sink meanBitLifeTimePerPacket:histogram:stddev 0.0044800720839957
scalar ResidenceTimeMeasurementShowcase.destination.app[0].sink meanBitLifeTimePerPacket:histogram:min 0.000110452
scalar ResidenceTimeMeasurementShowcase.destination.app[0].sink meanBitLifeTimePerPacket:histogram:max 0.019910047246
scalar ResidenceTimeMeasurementShowcase.destination.app[0].sink meanBitLifeTimePerPacket:histogram:numbins 63
scalar ResidenceTimeMeasurementShowcase.destination.app[0].sink meanBitLifeTimePerPacket:histogram:rangemin 0
scalar ResidenceTimeMeasurementShowcase.destination.app[0].sink meanBitLifeTimePerPacket:histogram:rangemax 0.02016
scalar ResidenceTimeMeasurementShowcase.destination.app[0].sink meanBitLifeTimePerPacket:histogram:underflows 0
scalar ResidenceTimeMeasurementShowcase.destination.app[0].sink meanBitLifeTimePerPacket:histogram:overflows 0
scalar ResidenceTimeMeasurementShowcase.destination.app[0].sink packetLifeTime:histogram:count 9792
scalar ResidenceTimeMeasurementShowcase.destination.app[0].sink packetLifeTime:histogram:sumweights 9792
scalar ResidenceTimeMeasurementShowcase.destination.app[0].sink packetLifeTime:histogram:mean 0.0040004345987839
scalar ResidenceTimeMeasurementShowcase.destination.app[0].sink packetLifeTime:histogram:stddev 0.0044800720839957
scalar ResidenceTimeMeasurementShowcase.destination.app[0].sink packetLifeTime:histogram:min 0.000110452
scalar ResidenceTimeMeasurementShowcase.destination.app[0].sink packetLifeTime:histogram:max 0.019910047246
scalar ResidenceTimeMeasurementShowcase.destination.app[0].sink packetLifeTime:histogram:numbins 63
scalar ResidenceTimeMeasurementShowcase.destination.app[0].sink packetLifeTime:histogram:rangemin 0
scalar ResidenceTimeMeasurementShowcase.destination.app[0].sink packetLifeTime:histogram:rangemax 0.02016
scalar ResidenceTimeMeasurementShowcase.destination.app[0].sink packetLifeTime:histogram:underflows 0
scalar ResidenceTimeMeasurementShowcase.destination.app[0].sink packetLifeTime:histogram:overflows 0
scalar ResidenceTimeMeasurementShowcase.destination.app[0].sink packetJitter:histogram:count 9792
scalar ResidenceTimeMeasurementShowcase.destination.app[0].sink packetJitter:histogram:sumweights 9792
scalar ResidenceTimeMeasurementShowcase.destination.app[0].sink packetJitter:histogram:mean 1.8887157741013e-06
scalar ResidenceTimeMeasurementShowcase.destination.app[0].sink packetJitter:histogram:stddev 9.8450357478326e-05
scalar ResidenceTimeMeasurementShowcase.destination.app[0].sink packetJitter:histogram:min -0.000857072115
scalar ResidenceTimeMeasurementShowcase.destination.app[0].sink packetJitter:histogram:max 0.000110452
scalar ResidenceTimeMeasurementShowcase.destination.app[0].sink packetJitter:histogram:numbins 53
scalar ResidenceTimeMeasurementShowcase.destination.app[0].sink packetJitter:histogram:rangemin -0.00086
scalar ResidenceTimeMeasurementShowcase.destination.app[0].sink packetJitter:histogram:rangemax 0.0002
scalar ResidenceTimeMeasurementShowcase.destination.app[0].sink packetJitter:histogram:underflows 0
scalar ResidenceTimeMeasurementShowcase.destination.app[0].sink packetJitter:histogram:overflows 0
scalar ResidenceTimeMeasurementShowcase.destination.app[0].sink packetDelayDifferenceToMean:histogram:count 9792
scalar ResidenceTimeMeasurementShowcase.destination.app[0].sink packetDelayDifferenceToMean:histogram:sumweights 9792
scalar ResidenceTimeMeasurementShowcase.destination.app[0].sink packetDelayDifferenceToMean:histogram:mean -0.0021714714508911
scalar ResidenceTimeMeasurementShowcase.destination.app[0].sink packetDelayDifferenceToMean:histogram:stddev 0.0039182639455957
scalar ResidenceTimeMeasurementShowcase.destination.app[0].sink packetDelayDifferenceToMean:histogram:min -0.016042691381162
scalar ResidenceTimeMeasurementShowcase.destination.app[0].sink packetDelayDifferenceToMean:histogram:max 0.0017532237598341
scalar ResidenceTimeMeasurementShowcase.destination.app[0].sink packetDelayDifferenceToMean:histogram:numbins 57
scalar ResidenceTimeMeasurementShowcase.destination.app[0].sink packetDelayDifferenceToMean:histogram:rangemin -0.0162
scalar ResidenceTimeMeasurementShowcase.destination.app[0].sink packetDelayDifferenceToMean:histogram:rangemax 0.00204
scalar ResidenceTimeMeasurementShowcase.destination.app[0].sink packetDelayDifferenceToMean:histogram:underflows 0
scalar ResidenceTimeMeasurementShowcase.destination.app[0].sink packetDelayDifferenceToMean:histogram:overflows 0
scalar ResidenceTimeMeasurementShowcase.destination.app[0].sink packetDelayVariation:histogram:count 9792
scalar ResidenceTimeMeasurementShowcase.destination.app[0].sink packetDelayVariation:histogram:sumweights 9792
scalar ResidenceTimeMeasurementShowcase.destination.app[0].sink packetDelayVariation:histogram:mean 0.0013103314278043
scalar ResidenceTimeMeasurementShowcase.destination.app[0].sink packetDelayVariation:histogram:stddev 0.00082710860858352
scalar ResidenceTimeMeasurementShowcase.destination.app[0].sink packetDelayVariation:histogram:min 0
scalar ResidenceTimeMeasurementShowcase.destination.app[0].sink packetDelayVariation:histogram:max 0.0044798433245558
scalar ResidenceTimeMeasurementShowcase.destination.app[0].sink packetDelayVariation:histogram:numbins 56
scalar ResidenceTimeMeasurementShowcase.destination.app[0].sink packetDelayVariation:histogram:rangemin 0
scalar ResidenceTimeMeasurementShowcase.destination.app[0].sink packetDelayVariation:histogram:rangemax 0.00448
scalar ResidenceTimeMeasurementShowcase.destination.app[0].sink packetDelayVariation:histogram:underflows 0
scalar ResidenceTimeMeasurementShowcase.destination.app[0].sink packetDelayVariation:histogram:overflows 0
scalar ResidenceTimeMeasurementShowcase.destination.app[0].sink droppedPacketLengths:histogram:count 9792
scalar ResidenceTimeMeasurementShowcase.destination.app[0].sink droppedPacketLengths:histogram:sumweights 9792
scalar ResidenceTimeMeasurementShowcase.destination.app[0].sink droppedPacketLengths:histogram:mean 9600
scalar ResidenceTimeMeasurementShowcase.destination.app[0].sink droppedPacketLengths:histogram:stddev 0
scalar ResidenceTimeMeasurementShowcase.destination.app[0].sink droppedPacketLengths:histogram:min 9600
scalar ResidenceTimeMeasurementShowcase.destination.app[0].sink droppedPacketLengths:histogram:max 9600
scalar ResidenceTimeMeasurementShowcase.destination.app[0].sink droppedPacketLengths:histogram:numbins 2
scalar ResidenceTimeMeasurementShowcase.destination.app[0].sink droppedPacketLengths:histogram:rangemin 9599
scalar ResidenceTimeMeasurementShowcase.destination.app[0].sink droppedPacketLengths:histogram:rangemax 9601
scalar ResidenceTimeMeasurementShowcase.destination.app[0].sink droppedPacketLengths:histogram:underflows 0
scalar ResidenceTimeMeasurementShowcase.destination.app[0].sink droppedPacketLengths:histogram:overflows 0
statistic ResidenceTimeMeasurementShowcase.source.measurer meanBitResidenceTimePerPacket:histogram
field count 9962
field mean 5.7153508532423e-07
field stddev 2.1043648619739e-06
field min 0
field max 2.5511333e-05
field sum 0.00569363252
field sqrsum 4.7364919763807e-08
bin	-inf	0
bin	0	9026
bin	4e-07	39
bin	8e-07	29
bin	1.2e-06	37
bin	1.6e-06	48
bin	2e-06	22
bin	2.4e-06	26
bin	2.8e-06	35
bin	3.2e-06	27
bin	3.6e-06	38
bin	4e-06	36
bin	4.4e-06	29
bin	4.8e-06	18
bin	5.2e-06	39
bin	5.6e-06	47
bin	6e-06	41
bin	6.4e-06	36
bin	6.8e-06	44
bin	7.2e-06	38
bin	7.6e-06	33
bin	8e-06	34
bin	8.4e-06	51
bin	8.8e-06	37
bin	9.2e-06	33
bin	9.6e-06	44
bin	1e-05	19
bin	1.04e-05	3
bin	1.08e-05	1
bin	1.12e-05	2
bin	1.16e-05	1
bin	1.2e-05	1
bin	1.24e-05	3
bin	1.28e-05	3
bin	1.32e-05	4
bin	1.36e-05	4
bin	1.4e-05	4
bin	1.44e-05	0
bin	1.48e-05	4
bin	1.52e-05	2
bin	1.56e-05	7
bin	1.6e-05	0
bin	1.64e-05	3
bin	1.68e-05	3
bin	1.72e-05	2
bin	1.76e-05	3
bin	1.8e-05	0
bin	1.84e-05	0
bin	1.88e-05	0
bin	1.92e-05	2
bin	1.96e-05	0
bin	2e-05	0
bin	2.04e-05	0
bin	2.08e-05	0
bin	2.12e-05	0
bin	2.16e-05	0
bin	2.2e-05	1
bin	2.24e-05	0
bin	2.28e-05	1
bin	2.32e-05	1
bin	2.36e-05	0
bin	2.4e-05	0
bin	2.44e-05	0
bin	2.48e-05	0
bin	2.52e-05	1
bin	2.56e-05	0
statistic ResidenceTimeMeasurementShowcase.source.measurer flowMeanBitResidenceTimePerPacket:histogram
field count 0
field mean -nan
field stddev nan
field min nan
field max nan
field sum 0
field sqrsum 0
bin	-inf	0
bin	0	0
bin	1	0
statistic ResidenceTimeMeasurementShowcase.source.eth[0].queue queueingTime:histogram
field count 9962
field mean 5.7153508532423e-07
field stddev 2.1043648619739e-06
field min 0
field max 2.5511333e-05
field sum 0.00569363252
field sqrsum 4.7364919763807e-08
bin	-inf	0
bin	0	9026
bin	4e-07	39
bin	8e-07	29
bin	1.2e-06	37
bin	1.6e-06	48
bin	2e-06	22
bin	2.4e-06	26
bin	2.8e-06	35
bin	3.2e-06	27
bin	3.6e-06	38
bin	4e-06	36
bin	4.4e-06	29
bin	4.8e-06	18
bin	5.2e-06	39
bin	5.6e-06	47
bin	6e-06	41
bin	6.4e-06	36
bin	6.8e-06	44
bin	7.2e-06	38
bin	7.6e-06	33
bin	8e-06	34
bin	8.4e-06	51
bin	8.8e-06	37
bin	9.2e-06	33
bin	9.6e-06	44
bin	1e-05	19
bin	1.04e-05	3
bin	1.08e-05	1
bin	1.12e-05	2
bin	1.16e-05	1
bin	1.2e-05	1
bin	1.24e-05	3
bin	1.28e-05	3
bin	1.32e-05	4
bin	1.36e-05	4
bin	1.4e-05	4
bin	1.44e-05	0
bin	1.48e-05	4
bin	1.52e-05	2
bin	1.56e-05	7
bin	1.6e-05	0
bin	1.64e-05	3
bin	1.68e-05	3
bin	1.72e-05	2
bin	1.76e-05	3
bin	1.8e-05	0
bin	1.84e-05	0
bin	1.88e-05	0
bin	1.92e-05	2
bin	1.96e-05	0
bin	2e-05	0
bin	2.04e-05	0
bin	2.08e-05	0
bin	2.12e-05	0
bin	2.16e-05	0
bin	2.2e-05	1
bin	2.24e-05	0
bin	2.28e-05	1
bin	2.32e-05	1
bin	2.36e-05	0
bin	2.4e-05	0
bin	2.44e-05	0
bin	2.48e-05	0
bin	2.52e-05	1
bin	2.56e-05	0
statistic ResidenceTimeMeasurementShowcase.source.eth[0].queue outgoingPacketLengths:histogram
field count 9962
field mean 9968
field stddev 0
field min 9968
field max 9968
field sum 99301216
field sqrsum 989834521088
bin	-inf	0
bin	9967	0
bin	9968	9962
bin	9969	0
statistic ResidenceTimeMeasurementShowcase.source.eth[0].queue flowQueueingTime:histogram
field count 0
field mean -nan
field stddev nan
field min nan
field max nan
field sum 0
field sqrsum 0
bin	-inf	0
bin	0	0
bin	1	0
statistic ResidenceTimeMeasurementShowcase.source.eth[0].queue incomingPacketLengths:histogram
field count 9962
field mean 9968
field stddev 0
field min 9968
field max 9968
field sum 99301216
field sqrsum 989834521088
bin	-inf	0
bin	9967	0
bin	9968	9962
bin	9969	0
statistic ResidenceTimeMeasurementShowcase.source.eth[0].mac throughput:histogram
field count 100
field mean 100802907.22659
field stddev 9496130.8205552
field min 82070848.966043
field max 122867742.29075
field sum 10080290722.659
field sqrsum 1.0250500840888e+18
bin	-inf	0
bin	72000000	0
bin	73000000	0
bin	74000000	0
bin	75000000	0
bin	76000000	0
bin	77000000	0
bin	78000000	0
bin	79000000	0
bin	80000000	0
bin	81000000	0
bin	82000000	1
bin	83000000	0
bin	84000000	0
bin	85000000	2
bin	86000000	3
bin	87000000	1
bin	88000000	3
bin	89000000	1
bin	90000000	2
bin	91000000	2
bin	92000000	5
bin	93000000	2
bin	94000000	5
bin	95000000	9
bin	96000000	5
bin	97000000	1
bin	98000000	5
bin	99000000	5
bin	100000000	4
bin	101000000	8
bin	102000000	4
bin	103000000	3
bin	104000000	2
bin	105000000	2
bin	106000000	3
bin	107000000	3
bin	108000000	1
bin	109000000	1
bin	110000000	1
bin	111000000	0
bin	112000000	0
bin	113000000	2
bin	114000000	2
bin	115000000	2
bin	116000000	1
bin	117000000	1
bin	118000000	2
bin	119000000	2
bin	120000000	2
bin	121000000	1
bin	122000000	1
bin	123000000	0
bin	124000000	0
bin	125000000	0
bin	126000000	0
bin	127000000	0
bin	128000000	0
bin	129000000	0
bin	130000000	0
bin	131000000	0
statistic ResidenceTimeMeasurementShowcase.source.eth[0].mac utilization:histogram
field count 100
field mean 10.077506483342
field stddev 0.93365622721433
field min 8.1838732962614
field max 12.388057646935
field sum 1007.7506483342
field sqrsum 10241.913373291
bin	-inf	0
bin	7.2	0
bin	7.3	0
bin	7.4	0
bin	7.5	0
bin	7.6	0
bin	7.7	0
bin	7.8	0
bin	7.9	0
bin	8	0
bin	8.1	1
bin	8.2	0
bin	8.3	0
bin	8.4	2
bin	8.5	2
bin	8.6	1
bin	8.7	1
bin	8.8	1
bin	8.9	1
bin	9	1
bin	9.1	2
bin	9.2	8
bin	9.3	2
bin	9.4	3
bin	9.5	12
bin	9.6	3
bin	9.7	4
bin	9.8	2
bin	9.9	7
bin	10	5
bin	10.1	5
bin	10.2	8
bin	10.3	0
bin	10.4	1
bin	10.5	2
bin	10.6	5
bin	10.7	1
bin	10.8	2
bin	10.9	2
bin	11	0
bin	11.1	0
bin	11.2	1
bin	11.3	1
bin	11.4	2
bin	11.5	3
bin	11.6	2
bin	11.7	1
bin	11.8	0
bin	11.9	2
bin	12	1
bin	12.1	2
bin	12.2	0
bin	12.3	1
bin	12.4	0
bin	12.5	0
bin	12.6	0
bin	12.7	0
bin	12.8	0
bin	12.9	0
bin	13	0
bin	13.1	0
statistic ResidenceTimeMeasurementShowcase.source.app[0].source packetLengths:histogram
field count 9962
field mean 9600
field stddev 0
field min 9600
field max 9600
field sum 95635200
field sqrsum 918097920000
bin	-inf	0
bin	9599	0
bin	9600	9962
bin	9601	0
statistic ResidenceTimeMeasurementShowcase.switch.measurer meanBitResidenceTimePerPacket:histogram
field count 9793
field mean 0.0038908966778726
field stddev 0.004482235020536
field min 0
field max 0.019795355531
field sum 38.103551166406
field sqrsum 0.34498247883961
bin	-inf	0
bin	0	703
bin	0.00032	798
bin	0.00064	728
bin	0.00096	750
bin	0.00128	713
bin	0.0016	846
bin	0.00192	624
bin	0.00224	473
bin	0.00256	482
bin	0.00288	452
bin	0.0032	369
bin	0.00352	284
bin	0.00384	249
bin	0.00416	136
bin	0.00448	38
bin	0.0048	30
bin	0.00512	55
bin	0.00544	66
bin	0.00576	20
bin	0.00608	27
bin	0.0064	19
bin	0.00672	25
bin	0.00704	28
bin	0.00736	56
bin	0.00768	108
bin	0.008	55
bin	0.00832	41
bin	0.00864	83
bin	0.00896	68
bin	0.00928	50
bin	0.0096	120
bin	0.00992	155
bin	0.01024	58
bin	0.01056	55
bin	0.01088	32
bin	0.0112	29
bin	0.01152	7
bin	0.01184	25
bin	0.01216	75
bin	0.01248	102
bin	0.0128	53
bin	0.01312	37
bin	0.01344	73
bin	0.01376	85
bin	0.01408	66
bin	0.0144	58
bin	0.01472	36
bin	0.01504	41
bin	0.01536	10
bin	0.01568	33
bin	0.016	11
bin	0.01632	7
bin	0.01664	11
bin	0.01696	6
bin	0.01728	28
bin	0.0176	36
bin	0.01792	13
bin	0.01824	29
bin	0.01856	34
bin	0.01888	57
bin	0.0192	26
bin	0.01952	9
bin	0.01984	0
statistic ResidenceTimeMeasurementShowcase.switch.measurer flowMeanBitResidenceTimePerPacket:histogram
field count 0
field mean -nan
field stddev nan
field min nan
field max nan
field sum 0
field sqrsum 0
bin	-inf	0
bin	0	0
bin	1	0
statistic ResidenceTimeMeasurementShowcase.switch.eth[0].queue queueingTime:histogram
field count 0
field mean -nan
field stddev nan
field min nan
field max nan
field sum 0
field sqrsum 0
bin	-inf	0
bin	0	0
bin	1	0
statistic ResidenceTimeMeasurementShowcase.switch.eth[0].queue outgoingPacketLengths:histogram
field count 0
field mean -nan
field stddev nan
field min nan
field max nan
field sum 0
field sqrsum 0
bin	-inf	0
bin	0	0
bin	1	0
statistic ResidenceTimeMeasurementShowcase.switch.eth[0].queue flowQueueingTime:histogram
field count 0
field mean -nan
field stddev nan
field min nan
field max nan
field sum 0
field sqrsum 0
bin	-inf	0
bin	0	0
bin	1	0
statistic ResidenceTimeMeasurementShowcase.switch.eth[0].queue incomingPacketLengths:histogram
field count 0
field mean -nan
field stddev nan
field min nan
field max nan
field sum 0
field sqrsum 0
bin	-inf	0
bin	0	0
bin	1	0
statistic ResidenceTimeMeasurementShowcase.switch.eth[0].mac throughput:histogram
field count 10
field mean 0
field stddev 0
field min 0
field max 0
field sum 0
field sqrsum 0
bin	-inf	0
bin	-0.5	0
bin	-0.48	0
bin	-0.46	0
bin	-0.44	0
bin	-0.42	0
bin	-0.4	0
bin	-0.38	0
bin	-0.36	0
bin	-0.34	0
bin	-0.32	0
bin	-0.3	0
bin	-0.28	0
bin	-0.26	0
bin	-0.24	0
bin	-0.22	0
bin	-0.2	0
bin	-0.18	0
bin	-0.16	0
bin	-0.14	0
bin	-0.12	0
bin	-0.1	0
bin	-0.08	0
bin	-0.06	0
bin	-0.04	0
bin	-0.02	0
bin	0	10
bin	0.02	0
bin	0.04	0
bin	0.06	0
bin	0.08	0
bin	0.1	0
bin	0.12	0
bin	0.14	0
bin	0.16	0
bin	0.18	0
bin	0.2	0
bin	0.22	0
bin	0.24	0
bin	0.26	0
bin	0.28	0
bin	0.3	0
bin	0.32	0
bin	0.34	0
bin	0.36	0
bin	0.38	0
bin	0.4	0
bin	0.42	0
bin	0.44	0
bin	0.46	0
bin	0.48	0
bin	0.5	0
statistic ResidenceTimeMeasurementShowcase.switch.eth[0].mac utilization:histogram
field count 10
field mean 0
field stddev 0
field min 0
field max 0
field sum 0
field sqrsum 0
bin	-inf	0
bin	-0.5	0
bin	-0.48	0
bin	-0.46	0
bin	-0.44	0
bin	-0.42	0
bin	-0.4	0
bin	-0.38	0
bin	-0.36	0
bin	-0.34	0
bin	-0.32	0
bin	-0.3	0
bin	-0.28	0
bin	-0.26	0
bin	-0.24	0
bin	-0.22	0
bin	-0.2	0
bin	-0.18	0
bin	-0.16	0
bin	-0.14	0
bin	-0.12	0
bin	-0.1	0
bin	-0.08	0
bin	-0.06	0
bin	-0.04	0
bin	-0.02	0
bin	0	10
bin	0.02	0
bin	0.04	0
bin	0.06	0
bin	0.08	0
bin	0.1	0
bin	0.12	0
bin	0.14	0
bin	0.16	0
bin	0.18	0
bin	0.2	0
bin	0.22	0
bin	0.24	0
bin	0.26	0
bin	0.28	0
bin	0.3	0
bin	0.32	0
bin	0.34	0
bin	0.36	0
bin	0.38	0
bin	0.4	0
bin	0.42	0
bin	0.44	0
bin	0.46	0
bin	0.48	0
bin	0.5	0
statistic ResidenceTimeMeasurementShowcase.switch.eth[1].queue queueingTime:histogram
field count 9793
field mean 0.0038908966778726
field stddev 0.004482235020536
field min 0
field max 0.019795355531
field sum 38.103551166406
field sqrsum 0.34498247883961
bin	-inf	0
bin	0	703
bin	0.00032	798
bin	0.00064	728
bin	0.00096	750
bin	0.00128	713
bin	0.0016	846
bin	0.00192	624
bin	0.00224	473
bin	0.00256	482
bin	0.00288	452
bin	0.0032	369
bin	0.00352	284
bin	0.00384	249
bin	0.00416	136
bin	0.00448	38
bin	0.0048	30
bin	0.00512	55
bin	0.00544	66
bin	0.00576	20
bin	0.00608	27
bin	0.0064	19
bin	0.00672	25
bin	0.00704	28
bin	0.00736	56
bin	0.00768	108
bin	0.008	55
bin	0.00832	41
bin	0.00864	83
bin	0.00896	68
bin	0.00928	50
bin	0.0096	120
bin	0.00992	155
bin	0.01024	58
bin	0.01056	55
bin	0.01088	32
bin	0.0112	29
bin	0.01152	7
bin	0.01184	25
bin	0.01216	75
bin	0.01248	102
bin	0.0128	53
bin	0.01312	37
bin	0.01344	73
bin	0.01376	85
bin	0.01408	66
bin	0.0144	58
bin	0.01472	36
bin	0.01504	41
bin	0.01536	10
bin	0.01568	33
bin	0.016	11
bin	0.01632	7
bin	0.01664	11
bin	0.01696	6
bin	0.01728	28
bin	0.0176	36
bin	0.01792	13
bin	0.01824	29
bin	0.01856	34
bin	0.01888	57
bin	0.0192	26
bin	0.01952	9
bin	0.01984	0
statistic ResidenceTimeMeasurementShowcase.switch.eth[1].queue outgoingPacketLengths:histogram
field count 9793
field mean 9968
field stddev 0
field min 9968
field max 9968
field sum 97616624
field sqrsum 973042508032
bin	-inf	0
bin	9967	0
bin	9968	9793
bin	9969	0
statistic ResidenceTimeMeasurementShowcase.switch.eth[1].queue flowQueueingTime:histogram
field count 0
field mean -nan
field stddev nan
field min nan
field max nan
field sum 0
field sqrsum 0
bin	-inf	0
bin	0	0
bin	1	0
statistic ResidenceTimeMeasurementShowcase.switch.eth[1].queue incomingPacketLengths:histogram
field count 9962
field mean 9968
field stddev 0
field min 9968
field max 9968
field sum 99301216
field sqrsum 989834521088
bin	-inf	0
bin	9967	0
bin	9968	9962
bin	9969	0
statistic ResidenceTimeMeasurementShowcase.switch.eth[1].mac throughput:histogram
field count 98
field mean 98276812.009799
field stddev 1999344.6676392
field min 87892695.793716
field max 99052132.701422
[...]
scalar ResidenceTimeMeasurementShowcase.destination.ipv4.ip packetDropForwardingDisabled:vector(packetBytes):sumweights 0
scalar ResidenceTimeMeasurementShowcase.destination.ipv4.ip packetDropForwardingDisabled:vector(packetBytes):mean -nan
scalar ResidenceTimeMeasurementShowcase.destination.ipv4.ip packetDropForwardingDisabled:vector(packetBytes):stddev nan
scalar ResidenceTimeMeasurementShowcase.destination.ipv4.ip packetDropForwardingDisabled:vector(packetBytes):min inf
scalar ResidenceTimeMeasurementShowcase.destination.ipv4.ip packetDropForwardingDisabled:vector(packetBytes):max -inf
scalar ResidenceTimeMeasurementShowcase.destination.ipv4.ip packetDropForwardingDisabled:vector(packetBytes):starttime nan
scalar ResidenceTimeMeasurementShowcase.destination.ipv4.ip packetDropForwardingDisabled:vector(packetBytes):endtime nan
scalar ResidenceTimeMeasurementShowcase.destination.ipv4.ip packetDropLifetimeExpired:vector(packetBytes):count 0
scalar ResidenceTimeMeasurementShowcase.destination.ipv4.ip packetDropLifetimeExpired:vector(packetBytes):sum 0
scalar ResidenceTimeMeasurementShowcase.destination.ipv4.ip packetDropLifetimeExpired:vector(packetBytes):sumweights 0
scalar ResidenceTimeMeasurementShowcase.destination.ipv4.ip packetDropLifetimeExpired:vector(packetBytes):mean -nan
scalar ResidenceTimeMeasurementShowcase.destination.ipv4.ip packetDropLifetimeExpired:vector(packetBytes):stddev nan
scalar ResidenceTimeMeasurementShowcase.destination.ipv4.ip packetDropLifetimeExpired:vector(packetBytes):min inf
scalar ResidenceTimeMeasurementShowcase.destination.ipv4.ip packetDropLifetimeExpired:vector(packetBytes):max -inf
scalar ResidenceTimeMeasurementShowcase.destination.ipv4.ip packetDropLifetimeExpired:vector(packetBytes):starttime nan
scalar ResidenceTimeMeasurementShowcase.destination.ipv4.ip packetDropLifetimeExpired:vector(packetBytes):endtime nan
scalar ResidenceTimeMeasurementShowcase.destination.ipv4.ip packetDropNoInterfaceFound:vector(packetBytes):count 0
scalar ResidenceTimeMeasurementShowcase.destination.ipv4.ip packetDropNoInterfaceFound:vector(packetBytes):sum 0
scalar ResidenceTimeMeasurementShowcase.destination.ipv4.ip packetDropNoInterfaceFound:vector(packetBytes):sumweights 0
scalar ResidenceTimeMeasurementShowcase.destination.ipv4.ip packetDropNoInterfaceFound:vector(packetBytes):mean -nan
scalar ResidenceTimeMeasurementShowcase.destination.ipv4.ip packetDropNoInterfaceFound:vector(packetBytes):stddev nan
scalar ResidenceTimeMeasurementShowcase.destination.ipv4.ip packetDropNoInterfaceFound:vector(packetBytes):min inf
scalar ResidenceTimeMeasurementShowcase.destination.ipv4.ip packetDropNoInterfaceFound:vector(packetBytes):max -inf
scalar ResidenceTimeMeasurementShowcase.destination.ipv4.ip packetDropNoInterfaceFound:vector(packetBytes):starttime nan
scalar ResidenceTimeMeasurementShowcase.destination.ipv4.ip packetDropNoInterfaceFound:vector(packetBytes):endtime nan
scalar ResidenceTimeMeasurementShowcase.destination.ipv4.ip packetDropNoRouteFound:vector(packetBytes):count 0
scalar ResidenceTimeMeasurementShowcase.destination.ipv4.ip packetDropNoRouteFound:vector(packetBytes):sum 0
scalar ResidenceTimeMeasurementShowcase.destination.ipv4.ip packetDropNoRouteFound:vector(packetBytes):sumweights 0
scalar ResidenceTimeMeasurementShowcase.destination.ipv4.ip packetDropNoRouteFound:vector(packetBytes):mean -nan
scalar ResidenceTimeMeasurementShowcase.destination.ipv4.ip packetDropNoRouteFound:vector(packetBytes):stddev nan
scalar ResidenceTimeMeasurementShowcase.destination.ipv4.ip packetDropNoRouteFound:vector(packetBytes):min inf
scalar ResidenceTimeMeasurementShowcase.destination.ipv4.ip packetDropNoRouteFound:vector(packetBytes):max -inf
scalar ResidenceTimeMeasurementShowcase.destination.ipv4.ip packetDropNoRouteFound:vector(packetBytes):starttime nan
scalar ResidenceTimeMeasurementShowcase.destination.ipv4.ip packetDropNoRouteFound:vector(packetBytes):endtime nan
scalar ResidenceTimeMeasurementShowcase.destination.ipv4.ip packetDropUndefined:vector(packetBytes):count 0
scalar ResidenceTimeMeasurementShowcase.destination.ipv4.ip packetDropUndefined:vector(packetBytes):sum 0
scalar ResidenceTimeMeasurementShowcase.destination.ipv4.ip packetDropUndefined:vector(packetBytes):sumweights 0
scalar ResidenceTimeMeasurementShowcase.destination.ipv4.ip packetDropUndefined:vector(packetBytes):mean -nan
scalar ResidenceTimeMeasurementShowcase.destination.ipv4.ip packetDropUndefined:vector(packetBytes):stddev nan
scalar ResidenceTimeMeasurementShowcase.destination.ipv4.ip packetDropUndefined:vector(packetBytes):min inf
scalar ResidenceTimeMeasurementShowcase.destination.ipv4.ip packetDropUndefined:vector(packetBytes):max -inf
scalar ResidenceTimeMeasurementShowcase.destination.ipv4.ip packetDropUndefined:vector(packetBytes):starttime nan
scalar ResidenceTimeMeasurementShowcase.destination.ipv4.ip packetDropUndefined:vector(packetBytes):endtime nan
scalar ResidenceTimeMeasurementShowcase.destination.udp packetSent:vector(packetBytes):count 0
scalar ResidenceTimeMeasurementShowcase.destination.udp packetSent:vector(packetBytes):sum 0
scalar ResidenceTimeMeasurementShowcase.destination.udp packetSent:vector(packetBytes):sumweights 0
scalar ResidenceTimeMeasurementShowcase.destination.udp packetSent:vector(packetBytes):mean -nan
scalar ResidenceTimeMeasurementShowcase.destination.udp packetSent:vector(packetBytes):stddev nan
scalar ResidenceTimeMeasurementShowcase.destination.udp packetSent:vector(packetBytes):min inf
scalar ResidenceTimeMeasurementShowcase.destination.udp packetSent:vector(packetBytes):max -inf
scalar ResidenceTimeMeasurementShowcase.destination.udp packetSent:vector(packetBytes):starttime nan
scalar ResidenceTimeMeasurementShowcase.destination.udp packetSent:vector(packetBytes):endtime nan
scalar ResidenceTimeMeasurementShowcase.destination.udp packetReceived:vector(packetBytes):count 9792
scalar ResidenceTimeMeasurementShowcase.destination.udp packetReceived:vector(packetBytes):sum 11828736
scalar ResidenceTimeMeasurementShowcase.destination.udp packetReceived:vector(packetBytes):sumweights 9792
scalar ResidenceTimeMeasurementShowcase.destination.udp packetReceived:vector(packetBytes):mean 1208
scalar ResidenceTimeMeasurementShowcase.destination.udp packetReceived:vector(packetBytes):stddev 0
scalar ResidenceTimeMeasurementShowcase.destination.udp packetReceived:vector(packetBytes):min 1208
scalar ResidenceTimeMeasurementShowcase.destination.udp packetReceived:vector(packetBytes):max 1208
scalar ResidenceTimeMeasurementShowcase.destination.udp packetReceived:vector(packetBytes):starttime 0.000110452
scalar ResidenceTimeMeasurementShowcase.destination.udp packetReceived:vector(packetBytes):endtime 0.999993353761
scalar ResidenceTimeMeasurementShowcase.destination.udp passedUpPk:vector(count):count 9793
scalar ResidenceTimeMeasurementShowcase.destination.udp passedUpPk:vector(count):sum 47946528
scalar ResidenceTimeMeasurementShowcase.destination.udp passedUpPk:vector(count):sumweights 9793
scalar ResidenceTimeMeasurementShowcase.destination.udp passedUpPk:vector(count):mean 4896
scalar ResidenceTimeMeasurementShowcase.destination.udp passedUpPk:vector(count):stddev 2827.1399269698
scalar ResidenceTimeMeasurementShowcase.destination.udp passedUpPk:vector(count):min 0
scalar ResidenceTimeMeasurementShowcase.destination.udp passedUpPk:vector(count):max 9792
scalar ResidenceTimeMeasurementShowcase.destination.udp passedUpPk:vector(count):starttime 0
scalar ResidenceTimeMeasurementShowcase.destination.udp passedUpPk:vector(count):endtime 0.999993353761
scalar ResidenceTimeMeasurementShowcase.destination.udp droppedPkWrongPort:vector(count):count 1
scalar ResidenceTimeMeasurementShowcase.destination.udp droppedPkWrongPort:vector(count):sum 0
scalar ResidenceTimeMeasurementShowcase.destination.udp droppedPkWrongPort:vector(count):sumweights 1
scalar ResidenceTimeMeasurementShowcase.destination.udp droppedPkWrongPort:vector(count):mean 0
scalar ResidenceTimeMeasurementShowcase.destination.udp droppedPkWrongPort:vector(count):stddev nan
scalar ResidenceTimeMeasurementShowcase.destination.udp droppedPkWrongPort:vector(count):min 0
scalar ResidenceTimeMeasurementShowcase.destination.udp droppedPkWrongPort:vector(count):max 0
scalar ResidenceTimeMeasurementShowcase.destination.udp droppedPkWrongPort:vector(count):starttime 0
scalar ResidenceTimeMeasurementShowcase.destination.udp droppedPkWrongPort:vector(count):endtime 0
scalar ResidenceTimeMeasurementShowcase.destination.udp droppedPkBadChecksum:vector(count):count 1
scalar ResidenceTimeMeasurementShowcase.destination.udp droppedPkBadChecksum:vector(count):sum 0
scalar ResidenceTimeMeasurementShowcase.destination.udp droppedPkBadChecksum:vector(count):sumweights 1
scalar ResidenceTimeMeasurementShowcase.destination.udp droppedPkBadChecksum:vector(count):mean 0
scalar ResidenceTimeMeasurementShowcase.destination.udp droppedPkBadChecksum:vector(count):stddev nan
scalar ResidenceTimeMeasurementShowcase.destination.udp droppedPkBadChecksum:vector(count):min 0
scalar ResidenceTimeMeasurementShowcase.destination.udp droppedPkBadChecksum:vector(count):max 0
scalar ResidenceTimeMeasurementShowcase.destination.udp droppedPkBadChecksum:vector(count):starttime 0
scalar ResidenceTimeMeasurementShowcase.destination.udp droppedPkBadChecksum:vector(count):endtime 0
scalar ResidenceTimeMeasurementShowcase.destination.app[0].sink droppedPacketLengths:vector:count 9792
scalar ResidenceTimeMeasurementShowcase.destination.app[0].sink droppedPacketLengths:vector:sum 94003200
scalar ResidenceTimeMeasurementShowcase.destination.app[0].sink droppedPacketLengths:vector:sumweights 9792
scalar ResidenceTimeMeasurementShowcase.destination.app[0].sink droppedPacketLengths:vector:mean 9600
scalar ResidenceTimeMeasurementShowcase.destination.app[0].sink droppedPacketLengths:vector:stddev 0
scalar ResidenceTimeMeasurementShowcase.destination.app[0].sink droppedPacketLengths:vector:min 9600
scalar ResidenceTimeMeasurementShowcase.destination.app[0].sink droppedPacketLengths:vector:max 9600
scalar ResidenceTimeMeasurementShowcase.destination.app[0].sink droppedPacketLengths:vector:starttime 0.000110452
scalar ResidenceTimeMeasurementShowcase.destination.app[0].sink droppedPacketLengths:vector:endtime 0.999993353761
scalar ResidenceTimeMeasurementShowcase.destination.app[0].sink droppedDataRate:vector:count 98
scalar ResidenceTimeMeasurementShowcase.destination.app[0].sink droppedDataRate:vector:sum 9216390133.0282
scalar ResidenceTimeMeasurementShowcase.destination.app[0].sink droppedDataRate:vector:sumweights 98
scalar ResidenceTimeMeasurementShowcase.destination.app[0].sink droppedDataRate:vector:mean 94044797.275798
scalar ResidenceTimeMeasurementShowcase.destination.app[0].sink droppedDataRate:vector:stddev 1913264.0077316
scalar ResidenceTimeMeasurementShowcase.destination.app[0].sink droppedDataRate:vector:min 84107842.8648
scalar ResidenceTimeMeasurementShowcase.destination.app[0].sink droppedDataRate:vector:max 94786729.85782
scalar ResidenceTimeMeasurementShowcase.destination.app[0].sink droppedDataRate:vector:starttime 0.010945199836
scalar ResidenceTimeMeasurementShowcase.destination.app[0].sink droppedDataRate:vector:endtime 1
scalar ResidenceTimeMeasurementShowcase.destination.app[0].sink packetLengths:vector:count 9792
scalar ResidenceTimeMeasurementShowcase.destination.app[0].sink packetLengths:vector:sum 94003200
scalar ResidenceTimeMeasurementShowcase.destination.app[0].sink packetLengths:vector:sumweights 9792
scalar ResidenceTimeMeasurementShowcase.destination.app[0].sink packetLengths:vector:mean 9600
scalar ResidenceTimeMeasurementShowcase.destination.app[0].sink packetLengths:vector:stddev 0
scalar ResidenceTimeMeasurementShowcase.destination.app[0].sink packetLengths:vector:min 9600
scalar ResidenceTimeMeasurementShowcase.destination.app[0].sink packetLengths:vector:max 9600
scalar ResidenceTimeMeasurementShowcase.destination.app[0].sink packetLengths:vector:starttime 0.000110452
scalar ResidenceTimeMeasurementShowcase.destination.app[0].sink packetLengths:vector:endtime 0.999993353761
scalar ResidenceTimeMeasurementShowcase.destination.app[0].sink dataRate:vector:count 98
scalar ResidenceTimeMeasurementShowcase.destination.app[0].sink dataRate:vector:sum 9216390133.0282
scalar ResidenceTimeMeasurementShowcase.destination.app[0].sink dataRate:vector:sumweights 98
scalar ResidenceTimeMeasurementShowcase.destination.app[0].sink dataRate:vector:mean 94044797.275798
scalar ResidenceTimeMeasurementShowcase.destination.app[0].sink dataRate:vector:stddev 1913264.0077316
scalar ResidenceTimeMeasurementShowcase.destination.app[0].sink dataRate:vector:min 84107842.8648
scalar ResidenceTimeMeasurementShowcase.destination.app[0].sink dataRate:vector:max 94786729.85782
scalar ResidenceTimeMeasurementShowcase.destination.app[0].sink dataRate:vector:starttime 0.010945199836
scalar ResidenceTimeMeasurementShowcase.destination.app[0].sink dataRate:vector:endtime 1
scalar ResidenceTimeMeasurementShowcase.destination.app[0].sink meanBitLifeTimePerPacket:vector:count 9792
scalar ResidenceTimeMeasurementShowcase.destination.app[0].sink meanBitLifeTimePerPacket:vector:sum 39.172255591292
scalar ResidenceTimeMeasurementShowcase.destination.app[0].sink meanBitLifeTimePerPacket:vector:sumweights 9792
scalar ResidenceTimeMeasurementShowcase.destination.app[0].sink meanBitLifeTimePerPacket:vector:mean 0.0040004345987839
scalar ResidenceTimeMeasurementShowcase.destination.app[0].sink meanBitLifeTimePerPacket:vector:stddev 0.0044800720839957
scalar ResidenceTimeMeasurementShowcase.destination.app[0].sink meanBitLifeTimePerPacket:vector:min 0.000110452
scalar ResidenceTimeMeasurementShowcase.destination.app[0].sink meanBitLifeTimePerPacket:vector:max 0.019910047246
scalar ResidenceTimeMeasurementShowcase.destination.app[0].sink meanBitLifeTimePerPacket:vector:starttime 0.000110452
scalar ResidenceTimeMeasurementShowcase.destination.app[0].sink meanBitLifeTimePerPacket:vector:endtime 0.999993353761
scalar ResidenceTimeMeasurementShowcase.destination.app[0].sink packetLifeTime:vector:count 9792
scalar ResidenceTimeMeasurementShowcase.destination.app[0].sink packetLifeTime:vector:sum 39.172255591292
scalar ResidenceTimeMeasurementShowcase.destination.app[0].sink packetLifeTime:vector:sumweights 9792
scalar ResidenceTimeMeasurementShowcase.destination.app[0].sink packetLifeTime:vector:mean 0.0040004345987839
scalar ResidenceTimeMeasurementShowcase.destination.app[0].sink packetLifeTime:vector:stddev 0.0044800720839957
scalar ResidenceTimeMeasurementShowcase.destination.app[0].sink packetLifeTime:vector:min 0.000110452
scalar ResidenceTimeMeasurementShowcase.destination.app[0].sink packetLifeTime:vector:max 0.019910047246
scalar ResidenceTimeMeasurementShowcase.destination.app[0].sink packetLifeTime:vector:starttime 0.000110452
scalar ResidenceTimeMeasurementShowcase.destination.app[0].sink packetLifeTime:vector:endtime 0.999993353761
scalar ResidenceTimeMeasurementShowcase.destination.app[0].sink packetJitter:vector:count 9792
scalar ResidenceTimeMeasurementShowcase.destination.app[0].sink packetJitter:vector:sum 0.01849430486
scalar ResidenceTimeMeasurementShowcase.destination.app[0].sink packetJitter:vector:sumweights 9792
scalar ResidenceTimeMeasurementShowcase.destination.app[0].sink packetJitter:vector:mean 1.8887157741013e-06
scalar ResidenceTimeMeasurementShowcase.destination.app[0].sink packetJitter:vector:stddev 9.8450357478326e-05
scalar ResidenceTimeMeasurementShowcase.destination.app[0].sink packetJitter:vector:min -0.000857072115
scalar ResidenceTimeMeasurementShowcase.destination.app[0].sink packetJitter:vector:max 0.000110452
scalar ResidenceTimeMeasurementShowcase.destination.app[0].sink packetJitter:vector:starttime 0.000110452
scalar ResidenceTimeMeasurementShowcase.destination.app[0].sink packetJitter:vector:endtime 0.999993353761
scalar ResidenceTimeMeasurementShowcase.destination.app[0].sink packetDelayDifferenceToMean:vector:count 9792
scalar ResidenceTimeMeasurementShowcase.destination.app[0].sink packetDelayDifferenceToMean:vector:sum -21.263048447126
scalar ResidenceTimeMeasurementShowcase.destination.app[0].sink packetDelayDifferenceToMean:vector:sumweights 9792
scalar ResidenceTimeMeasurementShowcase.destination.app[0].sink packetDelayDifferenceToMean:vector:mean -0.0021714714508911
scalar ResidenceTimeMeasurementShowcase.destination.app[0].sink packetDelayDifferenceToMean:vector:stddev 0.0039182639455957
scalar ResidenceTimeMeasurementShowcase.destination.app[0].sink packetDelayDifferenceToMean:vector:min -0.016042691381162
scalar ResidenceTimeMeasurementShowcase.destination.app[0].sink packetDelayDifferenceToMean:vector:max 0.0017532237598341
scalar ResidenceTimeMeasurementShowcase.destination.app[0].sink packetDelayDifferenceToMean:vector:starttime 0.000110452
scalar ResidenceTimeMeasurementShowcase.destination.app[0].sink packetDelayDifferenceToMean:vector:endtime 0.999993353761
scalar ResidenceTimeMeasurementShowcase.destination.app[0].sink packetDelayVariation:vector:count 9792
scalar ResidenceTimeMeasurementShowcase.destination.app[0].sink packetDelayVariation:vector:sum 12.83076534106
scalar ResidenceTimeMeasurementShowcase.destination.app[0].sink packetDelayVariation:vector:sumweights 9792
scalar ResidenceTimeMeasurementShowcase.destination.app[0].sink packetDelayVariation:vector:mean 0.0013103314278043
scalar ResidenceTimeMeasurementShowcase.destination.app[0].sink packetDelayVariation:vector:stddev 0.00082710860858352
scalar ResidenceTimeMeasurementShowcase.destination.app[0].sink packetDelayVariation:vector:min 0
scalar ResidenceTimeMeasurementShowcase.destination.app[0].sink packetDelayVariation:vector:max 0.0044798433245558
scalar ResidenceTimeMeasurementShowcase.destination.app[0].sink packetDelayVariation:vector:starttime 0.000110452
scalar ResidenceTimeMeasurementShowcase.destination.app[0].sink packetDelayVariation:vector:endtime 0.999993353761
scalar ResidenceTimeMeasurementShowcase.destination.app[0].io packetSent:vector(packetBytes):count 0
scalar ResidenceTimeMeasurementShowcase.destination.app[0].io packetSent:vector(packetBytes):sum 0
scalar ResidenceTimeMeasurementShowcase.destination.app[0].io packetSent:vector(packetBytes):sumweights 0
scalar ResidenceTimeMeasurementShowcase.destination.app[0].io packetSent:vector(packetBytes):mean -nan
scalar ResidenceTimeMeasurementShowcase.destination.app[0].io packetSent:vector(packetBytes):stddev nan
scalar ResidenceTimeMeasurementShowcase.destination.app[0].io packetSent:vector(packetBytes):min inf
scalar ResidenceTimeMeasurementShowcase.destination.app[0].io packetSent:vector(packetBytes):max -inf
scalar ResidenceTimeMeasurementShowcase.destination.app[0].io packetSent:vector(packetBytes):starttime nan
scalar ResidenceTimeMeasurementShowcase.destination.app[0].io packetSent:vector(packetBytes):endtime nan
scalar ResidenceTimeMeasurementShowcase.destination.app[0].io packetReceived:vector(packetBytes):count 9792
scalar ResidenceTimeMeasurementShowcase.destination.app[0].io packetReceived:vector(packetBytes):sum 11750400
scalar ResidenceTimeMeasurementShowcase.destination.app[0].io packetReceived:vector(packetBytes):sumweights 9792
scalar ResidenceTimeMeasurementShowcase.destination.app[0].io packetReceived:vector(packetBytes):mean 1200
scalar ResidenceTimeMeasurementShowcase.destination.app[0].io packetReceived:vector(packetBytes):stddev 0
scalar ResidenceTimeMeasurementShowcase.destination.app[0].io packetReceived:vector(packetBytes):min 1200
scalar ResidenceTimeMeasurementShowcase.destination.app[0].io packetReceived:vector(packetBytes):max 1200
scalar ResidenceTimeMeasurementShowcase.destination.app[0].io packetReceived:vector(packetBytes):starttime 0.000110452
scalar ResidenceTimeMeasurementShowcase.destination.app[0].io packetReceived:vector(packetBytes):endtime 0.999993353761

