version 3
run General-0-20260206-22:01:00-3564098
attr configname General
attr datetime 20260206-22:01:00
attr datetimef 20260206-220100
attr experiment General
attr inifile omnetpp.ini
attr iterationvars ""
attr iterationvarsd ""
attr iterationvarsf ""
attr measurement ""
attr network inet.networks.tsn.TsnLinearNetwork
attr processid 3564098
attr repetition 0
attr replication #0
attr resultdir results
attr runnumber 0
attr seedset 0
config **.param-recording false
config image-path /home/attila/projects/inet/images
config output-scalar-file results/omnetpp.ini-General-#0.sca
config output-scalar-precision 17
config output-vector-file results/omnetpp.ini-General-#0.vec
config output-vector-precision 17
config record-eventlog false
config sim-time-limit 10s
config network inet.networks.tsn.TsnLinearNetwork
config sim-time-limit 10s
config description "Traffic shaping using mixed asynchronous and credit-based shapers"
config **.displayGateSchedules true
config **.gateFilter "\"**.eth[1].**.transmissionGate*\""
config **.gateScheduleVisualizer.height 16
config **.gateScheduleVisualizer.placementHint "\"top\""
config *.client.numApps 2
config *.client.app[*].typename UdpSourceApp
config *.client.app[0].display-name "best effort"
config *.client.app[1].display-name video
config *.client.app[*].io.destAddress "\"server\""
config *.client.app[0].io.destPort 1000
config *.client.app[1].io.destPort 1001
config *.client.app[*].source.packetLength 1000B
config *.client.app[0].source.productionInterval "replaceUnit(1 / (sin(dropUnit(simTime()) * 3) + 4.5), \"ms\")"
config *.client.app[1].source.productionInterval "replaceUnit(1 / (sin(dropUnit(simTime() * 1)) + sin(dropUnit(simTime() * 8)) + 2), \"ms\")"
config *.server.numApps 2
config *.server.app[*].typename UdpSinkApp
config *.server.app[0].display-name "best effort"
config *.server.app[1].display-name video
config *.server.app[0].io.localPort 1000
config *.server.app[1].io.localPort 1001
config *.client.hasOutgoingStreams true
config *.server.hasIncomingStreams true
config *.client.bridging.streamIdentifier.identifier.mapping "[{stream: \"best effort\", packetFilter: expr(udp.destPort == 1000)},\n                                                         {stream: \"video\", packetFilter: expr(udp.destPort == 1001)}]"
config *.client.bridging.streamCoder.encoder.mapping "[{stream: \"best effort\", pcp: 0},\n                                                 {stream: \"video\", pcp: 4}]"
config *.switch.bridging.streamCoder.decoder.mapping "[{pcp: 0, stream: \"best effort\"},\n                                                 {pcp: 4, stream: \"video\"}]"
config *.switch.hasEgressTrafficShaping true
config *.switch.eth[*].macLayer.queue.numTrafficClasses 2
config *.switch.eth[*].macLayer.queue.*[0].display-name "best effort"
config *.switch.eth[*].macLayer.queue.*[1].display-name video
config *.switch.eth[*].macLayer.queue.transmissionSelectionAlgorithm[0].typename Ieee8021qCreditBasedShaper
config *.switch.eth[*].macLayer.queue.transmissionSelectionAlgorithm[0].idleSlope 63.96Mbps
config *.switch.eth[*].macLayer.queue.transmissionSelectionAlgorithm[1].typename Ieee8021qCreditBasedShaper
config *.switch.eth[*].macLayer.queue.transmissionSelectionAlgorithm[1].idleSlope 63.96Mbps
config *.switch.eth[*].macLayer.queue.transmissionGate[0].initiallyOpen true
config *.switch.eth[*].macLayer.queue.transmissionGate[1].initiallyOpen false
config *.switch.eth[*].macLayer.queue.transmissionGate[*].durations "[4ms, 2ms]"

scalar TsnLinearNetwork.client.bridging.directionReverser.reverser outgoingPackets:count 0
scalar TsnLinearNetwork.client.bridging.directionReverser.reverser outgoingPacketLengths:sum 0
scalar TsnLinearNetwork.client.bridging.directionReverser.reverser flowOutgoingPacketLengths:sum 0
scalar TsnLinearNetwork.client.bridging.directionReverser.reverser incomingPackets:count 0
scalar TsnLinearNetwork.client.bridging.directionReverser.reverser incomingPacketLengths:sum 0
scalar TsnLinearNetwork.client.bridging.directionReverser.reverser flowIncomingPacketLengths:sum 0
scalar TsnLinearNetwork.client.bridging.directionReverser.join packets:count 0
scalar TsnLinearNetwork.client.bridging.directionReverser.join packetLengths:sum 0
scalar TsnLinearNetwork.client.bridging.streamIdentifier.identifier outgoingPackets:count 67262
scalar TsnLinearNetwork.client.bridging.streamIdentifier.identifier outgoingPacketLengths:sum 553162688
scalar TsnLinearNetwork.client.bridging.streamIdentifier.identifier flowOutgoingPacketLengths:sum 0
scalar TsnLinearNetwork.client.bridging.streamIdentifier.identifier incomingPackets:count 67262
scalar TsnLinearNetwork.client.bridging.streamIdentifier.identifier incomingPacketLengths:sum 553162688
scalar TsnLinearNetwork.client.bridging.streamIdentifier.identifier flowIncomingPacketLengths:sum 0
scalar TsnLinearNetwork.client.bridging.streamCoder.decoder outgoingPackets:count 0
scalar TsnLinearNetwork.client.bridging.streamCoder.decoder outgoingPacketLengths:sum 0
scalar TsnLinearNetwork.client.bridging.streamCoder.decoder flowOutgoingPacketLengths:sum 0
scalar TsnLinearNetwork.client.bridging.streamCoder.decoder incomingPackets:count 0
scalar TsnLinearNetwork.client.bridging.streamCoder.decoder incomingPacketLengths:sum 0
scalar TsnLinearNetwork.client.bridging.streamCoder.decoder flowIncomingPacketLengths:sum 0
scalar TsnLinearNetwork.client.bridging.streamCoder.encoder outgoingPackets:count 67262
scalar TsnLinearNetwork.client.bridging.streamCoder.encoder outgoingPacketLengths:sum 553162688
scalar TsnLinearNetwork.client.bridging.streamCoder.encoder flowOutgoingPacketLengths:sum 0
scalar TsnLinearNetwork.client.bridging.streamCoder.encoder incomingPackets:count 67262
scalar TsnLinearNetwork.client.bridging.streamCoder.encoder incomingPacketLengths:sum 553162688
scalar TsnLinearNetwork.client.bridging.streamCoder.encoder flowIncomingPacketLengths:sum 0
scalar TsnLinearNetwork.client.ethernet.macHeaderInserter outgoingPackets:count 67262
scalar TsnLinearNetwork.client.ethernet.macHeaderInserter outgoingPacketLengths:sum 562848416
scalar TsnLinearNetwork.client.ethernet.macHeaderInserter flowOutgoingPacketLengths:sum 0
scalar TsnLinearNetwork.client.ethernet.macHeaderInserter incomingPackets:count 67262
scalar TsnLinearNetwork.client.ethernet.macHeaderInserter incomingPacketLengths:sum 555315072
scalar TsnLinearNetwork.client.ethernet.macHeaderInserter flowIncomingPacketLengths:sum 0
scalar TsnLinearNetwork.client.ethernet.paddingInserter outgoingPackets:count 67262
scalar TsnLinearNetwork.client.ethernet.paddingInserter outgoingPacketLengths:sum 562848416
scalar TsnLinearNetwork.client.ethernet.paddingInserter flowOutgoingPacketLengths:sum 0
scalar TsnLinearNetwork.client.ethernet.paddingInserter incomingPackets:count 67262
scalar TsnLinearNetwork.client.ethernet.paddingInserter incomingPacketLengths:sum 562848416
scalar TsnLinearNetwork.client.ethernet.paddingInserter flowIncomingPacketLengths:sum 0
scalar TsnLinearNetwork.client.ethernet.fcsInserter outgoingPackets:count 67262
scalar TsnLinearNetwork.client.ethernet.fcsInserter outgoingPacketLengths:sum 565000800
scalar TsnLinearNetwork.client.ethernet.fcsInserter flowOutgoingPacketLengths:sum 0
scalar TsnLinearNetwork.client.ethernet.fcsInserter incomingPackets:count 67262
scalar TsnLinearNetwork.client.ethernet.fcsInserter incomingPacketLengths:sum 562848416
scalar TsnLinearNetwork.client.ethernet.fcsInserter flowIncomingPacketLengths:sum 0
scalar TsnLinearNetwork.client.ethernet.macHeaderChecker outgoingPackets:count 0
scalar TsnLinearNetwork.client.ethernet.macHeaderChecker outgoingPacketLengths:sum 0
scalar TsnLinearNetwork.client.ethernet.macHeaderChecker flowOutgoingPacketLengths:sum 0
scalar TsnLinearNetwork.client.ethernet.macHeaderChecker incomingPackets:count 0
scalar TsnLinearNetwork.client.ethernet.macHeaderChecker incomingPacketLengths:sum 0
scalar TsnLinearNetwork.client.ethernet.macHeaderChecker flowIncomingPacketLengths:sum 0
scalar TsnLinearNetwork.client.ethernet.macHeaderChecker droppedPackets:count 0
scalar TsnLinearNetwork.client.ethernet.macHeaderChecker droppedPacketLengths:sum 0
scalar TsnLinearNetwork.client.ethernet.macHeaderChecker flowDroppedPacketLengths:sum 0
scalar TsnLinearNetwork.client.ethernet.fcsChecker outgoingPackets:count 0
scalar TsnLinearNetwork.client.ethernet.fcsChecker outgoingPacketLengths:sum 0
scalar TsnLinearNetwork.client.ethernet.fcsChecker flowOutgoingPacketLengths:sum 0
scalar TsnLinearNetwork.client.ethernet.fcsChecker incomingPackets:count 0
scalar TsnLinearNetwork.client.ethernet.fcsChecker incomingPacketLengths:sum 0
scalar TsnLinearNetwork.client.ethernet.fcsChecker flowIncomingPacketLengths:sum 0
scalar TsnLinearNetwork.client.ethernet.fcsChecker droppedPackets:count 0
scalar TsnLinearNetwork.client.ethernet.fcsChecker droppedPacketLengths:sum 0
scalar TsnLinearNetwork.client.ethernet.fcsChecker flowDroppedPacketLengths:sum 0
scalar TsnLinearNetwork.client.ieee8021q.qTagHeaderInserter outgoingPackets:count 67262
scalar TsnLinearNetwork.client.ieee8021q.qTagHeaderInserter outgoingPacketLengths:sum 555315072
scalar TsnLinearNetwork.client.ieee8021q.qTagHeaderInserter flowOutgoingPacketLengths:sum 0
scalar TsnLinearNetwork.client.ieee8021q.qTagHeaderInserter incomingPackets:count 67262
scalar TsnLinearNetwork.client.ieee8021q.qTagHeaderInserter incomingPacketLengths:sum 553162688
scalar TsnLinearNetwork.client.ieee8021q.qTagHeaderInserter flowIncomingPacketLengths:sum 0
scalar TsnLinearNetwork.client.ieee8021q.qTagHeaderChecker outgoingPackets:count 0
scalar TsnLinearNetwork.client.ieee8021q.qTagHeaderChecker outgoingPacketLengths:sum 0
scalar TsnLinearNetwork.client.ieee8021q.qTagHeaderChecker flowOutgoingPacketLengths:sum 0
scalar TsnLinearNetwork.client.ieee8021q.qTagHeaderChecker incomingPackets:count 0
scalar TsnLinearNetwork.client.ieee8021q.qTagHeaderChecker incomingPacketLengths:sum 0
scalar TsnLinearNetwork.client.ieee8021q.qTagHeaderChecker flowIncomingPacketLengths:sum 0
scalar TsnLinearNetwork.client.ieee8021q.qTagHeaderChecker droppedPackets:count 0
scalar TsnLinearNetwork.client.ieee8021q.qTagHeaderChecker droppedPacketLengths:sum 0
scalar TsnLinearNetwork.client.ieee8021q.qTagHeaderChecker flowDroppedPacketLengths:sum 0
scalar TsnLinearNetwork.client.lo[0].lo rcvdPkFromHl:count 0
scalar TsnLinearNetwork.client.lo[0].lo rcvdPkFromHl:sum(packetBytes) 0
scalar TsnLinearNetwork.client.lo[0].lo passedUpPk:count 0
scalar TsnLinearNetwork.client.lo[0].lo passedUpPk:sum(packetBytes) 0
scalar TsnLinearNetwork.client.lo[0] packetDropInterfaceDown:count 0
scalar TsnLinearNetwork.client.lo[0] packetDropInterfaceDown:sum(packetBytes) 0
scalar TsnLinearNetwork.client.lo[0] packetDropNoCarrier:count 0
scalar TsnLinearNetwork.client.lo[0] packetDropNoCarrier:sum(packetBytes) 0
scalar TsnLinearNetwork.client.eth[0].macLayer.queue queueLength:last 0
scalar TsnLinearNetwork.client.eth[0].macLayer.queue queueLength:max 2
scalar TsnLinearNetwork.client.eth[0].macLayer.queue queueLength:timeavg 0.073725922045499853
scalar TsnLinearNetwork.client.eth[0].macLayer.queue queueBitLength:last 0
scalar TsnLinearNetwork.client.eth[0].macLayer.queue queueBitLength:max 16800
scalar TsnLinearNetwork.client.eth[0].macLayer.queue queueBitLength:timeavg 619.29774518220017
scalar TsnLinearNetwork.client.eth[0].macLayer.queue outgoingPackets:count 67262
scalar TsnLinearNetwork.client.eth[0].macLayer.queue outgoingPacketLengths:sum 565000800
scalar TsnLinearNetwork.client.eth[0].macLayer.queue incomingPackets:count 67262
scalar TsnLinearNetwork.client.eth[0].macLayer.queue incomingPacketLengths:sum 565000800
scalar TsnLinearNetwork.client.eth[0].macLayer.queue droppedPacketsQueueOverflow:count 0
scalar TsnLinearNetwork.client.eth[0].macLayer.queue droppedPacketLengthsQueueOverflow:sum 0
scalar TsnLinearNetwork.client.eth[0].macLayer.server incomingPackets:count 67262
scalar TsnLinearNetwork.client.eth[0].macLayer.server incomingPacketLengths:sum 565000800
scalar TsnLinearNetwork.client.eth[0].macLayer.server outgoingPackets:count 67262
scalar TsnLinearNetwork.client.eth[0].macLayer.server outgoingPacketLengths:sum 565000800
scalar TsnLinearNetwork.client.eth[0].macLayer.outboundEmitter outgoingPackets:count 67262
scalar TsnLinearNetwork.client.eth[0].macLayer.outboundEmitter outgoingPacketLengths:sum 565000800
scalar TsnLinearNetwork.client.eth[0].macLayer.outboundEmitter flowOutgoingPacketLengths:sum 0
scalar TsnLinearNetwork.client.eth[0].macLayer.outboundEmitter incomingPackets:count 67262
scalar TsnLinearNetwork.client.eth[0].macLayer.outboundEmitter incomingPacketLengths:sum 565000800
scalar TsnLinearNetwork.client.eth[0].macLayer.outboundEmitter flowIncomingPacketLengths:sum 0
scalar TsnLinearNetwork.client.eth[0].macLayer.fcsChecker outgoingPackets:count 0
scalar TsnLinearNetwork.client.eth[0].macLayer.fcsChecker outgoingPacketLengths:sum 0
scalar TsnLinearNetwork.client.eth[0].macLayer.fcsChecker flowOutgoingPacketLengths:sum 0
scalar TsnLinearNetwork.client.eth[0].macLayer.fcsChecker incomingPackets:count 0
scalar TsnLinearNetwork.client.eth[0].macLayer.fcsChecker incomingPacketLengths:sum 0
scalar TsnLinearNetwork.client.eth[0].macLayer.fcsChecker flowIncomingPacketLengths:sum 0
scalar TsnLinearNetwork.client.eth[0].macLayer.fcsChecker droppedPackets:count 0
scalar TsnLinearNetwork.client.eth[0].macLayer.fcsChecker droppedPacketLengths:sum 0
scalar TsnLinearNetwork.client.eth[0].macLayer.fcsChecker flowDroppedPacketLengths:sum 0
scalar TsnLinearNetwork.client.eth[0].macLayer.inboundEmitter outgoingPackets:count 0
scalar TsnLinearNetwork.client.eth[0].macLayer.inboundEmitter outgoingPacketLengths:sum 0
scalar TsnLinearNetwork.client.eth[0].macLayer.inboundEmitter flowOutgoingPacketLengths:sum 0
scalar TsnLinearNetwork.client.eth[0].macLayer.inboundEmitter incomingPackets:count 0
scalar TsnLinearNetwork.client.eth[0].macLayer.inboundEmitter incomingPacketLengths:sum 0
scalar TsnLinearNetwork.client.eth[0].macLayer.inboundEmitter flowIncomingPacketLengths:sum 0
scalar TsnLinearNetwork.client.eth[0].phyLayer.phyHeaderInserter outgoingPackets:count 67262
scalar TsnLinearNetwork.client.eth[0].phyLayer.phyHeaderInserter outgoingPacketLengths:sum 569305568
scalar TsnLinearNetwork.client.eth[0].phyLayer.phyHeaderInserter flowOutgoingPacketLengths:sum 0
scalar TsnLinearNetwork.client.eth[0].phyLayer.phyHeaderInserter incomingPackets:count 67262
scalar TsnLinearNetwork.client.eth[0].phyLayer.phyHeaderInserter incomingPacketLengths:sum 565000800
scalar TsnLinearNetwork.client.eth[0].phyLayer.phyHeaderInserter flowIncomingPacketLengths:sum 0
scalar TsnLinearNetwork.client.eth[0].phyLayer.outboundEmitter outgoingPackets:count 67262
scalar TsnLinearNetwork.client.eth[0].phyLayer.outboundEmitter outgoingPacketLengths:sum 569305568
scalar TsnLinearNetwork.client.eth[0].phyLayer.outboundEmitter flowOutgoingPacketLengths:sum 0
scalar TsnLinearNetwork.client.eth[0].phyLayer.outboundEmitter incomingPackets:count 67262
scalar TsnLinearNetwork.client.eth[0].phyLayer.outboundEmitter incomingPacketLengths:sum 569305568
scalar TsnLinearNetwork.client.eth[0].phyLayer.outboundEmitter flowIncomingPacketLengths:sum 0
scalar TsnLinearNetwork.client.eth[0].phyLayer.transmitter propagationTime 4.9999999999999998e-08
scalar TsnLinearNetwork.client.eth[0].phyLayer.phyHeaderChecker outgoingPackets:count 0
scalar TsnLinearNetwork.client.eth[0].phyLayer.phyHeaderChecker outgoingPacketLengths:sum 0
scalar TsnLinearNetwork.client.eth[0].phyLayer.phyHeaderChecker flowOutgoingPacketLengths:sum 0
scalar TsnLinearNetwork.client.eth[0].phyLayer.phyHeaderChecker incomingPackets:count 0
scalar TsnLinearNetwork.client.eth[0].phyLayer.phyHeaderChecker incomingPacketLengths:sum 0
scalar TsnLinearNetwork.client.eth[0].phyLayer.phyHeaderChecker flowIncomingPacketLengths:sum 0
scalar TsnLinearNetwork.client.eth[0].phyLayer.phyHeaderChecker droppedPackets:count 0
scalar TsnLinearNetwork.client.eth[0].phyLayer.phyHeaderChecker droppedPacketLengths:sum 0
scalar TsnLinearNetwork.client.eth[0].phyLayer.phyHeaderChecker flowDroppedPacketLengths:sum 0
scalar TsnLinearNetwork.client.eth[0].phyLayer.inboundEmitter outgoingPackets:count 0
scalar TsnLinearNetwork.client.eth[0].phyLayer.inboundEmitter outgoingPacketLengths:sum 0
scalar TsnLinearNetwork.client.eth[0].phyLayer.inboundEmitter flowOutgoingPacketLengths:sum 0
scalar TsnLinearNetwork.client.eth[0].phyLayer.inboundEmitter incomingPackets:count 0
scalar TsnLinearNetwork.client.eth[0].phyLayer.inboundEmitter incomingPacketLengths:sum 0
scalar TsnLinearNetwork.client.eth[0].phyLayer.inboundEmitter flowIncomingPacketLengths:sum 0
scalar TsnLinearNetwork.client.eth[0] packetDropInterfaceDown:count 0
scalar TsnLinearNetwork.client.eth[0] packetDropInterfaceDown:sum(packetBytes) 0
scalar TsnLinearNetwork.client.eth[0] packetDropNoCarrier:count 0
scalar TsnLinearNetwork.client.eth[0] packetDropNoCarrier:sum(packetBytes) 0
scalar TsnLinearNetwork.client.ipv4.ip packetDropAddressResolutionFailed:count 0
scalar TsnLinearNetwork.client.ipv4.ip packetDropAddressResolutionFailed:sum(packetBytes) 0
scalar TsnLinearNetwork.client.ipv4.ip packetDropHopLimitReached:count 0
scalar TsnLinearNetwork.client.ipv4.ip packetDropHopLimitReached:sum(packetBytes) 0
scalar TsnLinearNetwork.client.ipv4.ip packetDropForwardingDisabled:count 0
scalar TsnLinearNetwork.client.ipv4.ip packetDropForwardingDisabled:sum(packetBytes) 0
scalar TsnLinearNetwork.client.ipv4.ip packetDropLifetimeExpired:count 0
scalar TsnLinearNetwork.client.ipv4.ip packetDropLifetimeExpired:sum(packetBytes) 0
scalar TsnLinearNetwork.client.ipv4.ip packetDropNoInterfaceFound:count 0
scalar TsnLinearNetwork.client.ipv4.ip packetDropNoInterfaceFound:sum(packetBytes) 0
scalar TsnLinearNetwork.client.ipv4.ip packetDropNoRouteFound:count 0
scalar TsnLinearNetwork.client.ipv4.ip packetDropNoRouteFound:sum(packetBytes) 0
scalar TsnLinearNetwork.client.ipv4.ip packetDropUndefined:count 0
scalar TsnLinearNetwork.client.ipv4.ip packetDropUndefined:sum(packetBytes) 0
scalar TsnLinearNetwork.client.udp packetReceived:count 0
scalar TsnLinearNetwork.client.udp packetReceived:sum(packetBytes) 0
scalar TsnLinearNetwork.client.udp packetSent:count 67262
scalar TsnLinearNetwork.client.udp packetSent:sum(packetBytes) 67800096
scalar TsnLinearNetwork.client.udp passedUpPk:count 0
scalar TsnLinearNetwork.client.udp droppedPkWrongPort:count 0
scalar TsnLinearNetwork.client.udp droppedPkBadChecksum:count 0
scalar TsnLinearNetwork.client.app[0].source packets:count 45283
scalar TsnLinearNetwork.client.app[0].source packetLengths:sum 362264000
scalar TsnLinearNetwork.client.app[0].io "packets sent" 45283
scalar TsnLinearNetwork.client.app[0].io "packets received" 0
scalar TsnLinearNetwork.client.app[0].io packetReceived:count 0
scalar TsnLinearNetwork.client.app[0].io packetReceived:sum(packetBytes) 0
scalar TsnLinearNetwork.client.app[0].io packetSent:count 45283
scalar TsnLinearNetwork.client.app[0].io packetSent:sum(packetBytes) 45283000
scalar TsnLinearNetwork.client.app[1].source packets:count 21979
scalar TsnLinearNetwork.client.app[1].source packetLengths:sum 175832000
scalar TsnLinearNetwork.client.app[1].io "packets sent" 21979
scalar TsnLinearNetwork.client.app[1].io "packets received" 0
scalar TsnLinearNetwork.client.app[1].io packetReceived:count 0
scalar TsnLinearNetwork.client.app[1].io packetReceived:sum(packetBytes) 0
scalar TsnLinearNetwork.client.app[1].io packetSent:count 21979
scalar TsnLinearNetwork.client.app[1].io packetSent:sum(packetBytes) 21979000
scalar TsnLinearNetwork.switch.bridging.directionReverser.reverser outgoingPackets:count 67261
scalar TsnLinearNetwork.switch.bridging.directionReverser.reverser outgoingPacketLengths:sum 553154464
scalar TsnLinearNetwork.switch.bridging.directionReverser.reverser flowOutgoingPacketLengths:sum 0
scalar TsnLinearNetwork.switch.bridging.directionReverser.reverser incomingPackets:count 67261
scalar TsnLinearNetwork.switch.bridging.directionReverser.reverser incomingPacketLengths:sum 553154464
scalar TsnLinearNetwork.switch.bridging.directionReverser.reverser flowIncomingPacketLengths:sum 0
scalar TsnLinearNetwork.switch.bridging.directionReverser.join packets:count 0
scalar TsnLinearNetwork.switch.bridging.directionReverser.join packetLengths:sum 0
scalar TsnLinearNetwork.switch.bridging.interfaceRelay.learner outgoingPackets:count 67261
scalar TsnLinearNetwork.switch.bridging.interfaceRelay.learner outgoingPacketLengths:sum 553154464
scalar TsnLinearNetwork.switch.bridging.interfaceRelay.learner flowOutgoingPacketLengths:sum 0
scalar TsnLinearNetwork.switch.bridging.interfaceRelay.learner incomingPackets:count 67261
scalar TsnLinearNetwork.switch.bridging.interfaceRelay.learner incomingPacketLengths:sum 553154464
scalar TsnLinearNetwork.switch.bridging.interfaceRelay.learner flowIncomingPacketLengths:sum 0
scalar TsnLinearNetwork.switch.bridging.interfaceRelay.selector packetDropped:count 0
scalar TsnLinearNetwork.switch.bridging.interfaceRelay.selector packetDropped:sum(packetBytes) 0
scalar TsnLinearNetwork.switch.ethernet.macHeaderInserter outgoingPackets:count 67261
scalar TsnLinearNetwork.switch.ethernet.macHeaderInserter outgoingPacketLengths:sum 562840048
scalar TsnLinearNetwork.switch.ethernet.macHeaderInserter flowOutgoingPacketLengths:sum 0
scalar TsnLinearNetwork.switch.ethernet.macHeaderInserter incomingPackets:count 67261
scalar TsnLinearNetwork.switch.ethernet.macHeaderInserter incomingPacketLengths:sum 555306816
scalar TsnLinearNetwork.switch.ethernet.macHeaderInserter flowIncomingPacketLengths:sum 0
scalar TsnLinearNetwork.switch.ethernet.paddingInserter outgoingPackets:count 67261
scalar TsnLinearNetwork.switch.ethernet.paddingInserter outgoingPacketLengths:sum 562840048
scalar TsnLinearNetwork.switch.ethernet.paddingInserter flowOutgoingPacketLengths:sum 0
scalar TsnLinearNetwork.switch.ethernet.paddingInserter incomingPackets:count 67261
scalar TsnLinearNetwork.switch.ethernet.paddingInserter incomingPacketLengths:sum 562840048
scalar TsnLinearNetwork.switch.ethernet.paddingInserter flowIncomingPacketLengths:sum 0
scalar TsnLinearNetwork.switch.ethernet.fcsInserter outgoingPackets:count 67261
scalar TsnLinearNetwork.switch.ethernet.fcsInserter outgoingPacketLengths:sum 564992400
scalar TsnLinearNetwork.switch.ethernet.fcsInserter flowOutgoingPacketLengths:sum 0
scalar TsnLinearNetwork.switch.ethernet.fcsInserter incomingPackets:count 67261
scalar TsnLinearNetwork.switch.ethernet.fcsInserter incomingPacketLengths:sum 562840048
scalar TsnLinearNetwork.switch.ethernet.fcsInserter flowIncomingPacketLengths:sum 0
scalar TsnLinearNetwork.switch.ethernet.macHeaderChecker outgoingPackets:count 67261
scalar TsnLinearNetwork.switch.ethernet.macHeaderChecker outgoingPacketLengths:sum 555306816
scalar TsnLinearNetwork.switch.ethernet.macHeaderChecker flowOutgoingPacketLengths:sum 0
scalar TsnLinearNetwork.switch.ethernet.macHeaderChecker incomingPackets:count 67261
scalar TsnLinearNetwork.switch.ethernet.macHeaderChecker incomingPacketLengths:sum 562840048
scalar TsnLinearNetwork.switch.ethernet.macHeaderChecker flowIncomingPacketLengths:sum 0
scalar TsnLinearNetwork.switch.ethernet.macHeaderChecker droppedPackets:count 0
scalar TsnLinearNetwork.switch.ethernet.macHeaderChecker droppedPacketLengths:sum 0
scalar TsnLinearNetwork.switch.ethernet.macHeaderChecker flowDroppedPacketLengths:sum 0
scalar TsnLinearNetwork.switch.ethernet.fcsChecker outgoingPackets:count 67261
scalar TsnLinearNetwork.switch.ethernet.fcsChecker outgoingPacketLengths:sum 562840048
scalar TsnLinearNetwork.switch.ethernet.fcsChecker flowOutgoingPacketLengths:sum 0
scalar TsnLinearNetwork.switch.ethernet.fcsChecker incomingPackets:count 67261
scalar TsnLinearNetwork.switch.ethernet.fcsChecker incomingPacketLengths:sum 564992400
scalar TsnLinearNetwork.switch.ethernet.fcsChecker flowIncomingPacketLengths:sum 0
scalar TsnLinearNetwork.switch.ethernet.fcsChecker droppedPackets:count 0
scalar TsnLinearNetwork.switch.ethernet.fcsChecker droppedPacketLengths:sum 0
scalar TsnLinearNetwork.switch.ethernet.fcsChecker flowDroppedPacketLengths:sum 0
scalar TsnLinearNetwork.switch.ieee8021q.qTagHeaderInserter outgoingPackets:count 67261
scalar TsnLinearNetwork.switch.ieee8021q.qTagHeaderInserter outgoingPacketLengths:sum 555306816
scalar TsnLinearNetwork.switch.ieee8021q.qTagHeaderInserter flowOutgoingPacketLengths:sum 0
scalar TsnLinearNetwork.switch.ieee8021q.qTagHeaderInserter incomingPackets:count 67261
scalar TsnLinearNetwork.switch.ieee8021q.qTagHeaderInserter incomingPacketLengths:sum 553154464
scalar TsnLinearNetwork.switch.ieee8021q.qTagHeaderInserter flowIncomingPacketLengths:sum 0
scalar TsnLinearNetwork.switch.ieee8021q.qTagHeaderChecker outgoingPackets:count 67261
scalar TsnLinearNetwork.switch.ieee8021q.qTagHeaderChecker outgoingPacketLengths:sum 553154464
scalar TsnLinearNetwork.switch.ieee8021q.qTagHeaderChecker flowOutgoingPacketLengths:sum 0
scalar TsnLinearNetwork.switch.ieee8021q.qTagHeaderChecker incomingPackets:count 67261
scalar TsnLinearNetwork.switch.ieee8021q.qTagHeaderChecker incomingPacketLengths:sum 555306816
scalar TsnLinearNetwork.switch.ieee8021q.qTagHeaderChecker flowIncomingPacketLengths:sum 0
scalar TsnLinearNetwork.switch.ieee8021q.qTagHeaderChecker droppedPackets:count 0
scalar TsnLinearNetwork.switch.ieee8021q.qTagHeaderChecker droppedPacketLengths:sum 0
scalar TsnLinearNetwork.switch.ieee8021q.qTagHeaderChecker flowDroppedPacketLengths:sum 0
scalar TsnLinearNetwork.switch.ieee8021r.rTagHeaderInserter outgoingPackets:count 0
scalar TsnLinearNetwork.switch.ieee8021r.rTagHeaderInserter outgoingPacketLengths:sum 0
scalar TsnLinearNetwork.switch.ieee8021r.rTagHeaderInserter flowOutgoingPacketLengths:sum 0
scalar TsnLinearNetwork.switch.ieee8021r.rTagHeaderInserter incomingPackets:count 0
scalar TsnLinearNetwork.switch.ieee8021r.rTagHeaderInserter incomingPacketLengths:sum 0
scalar TsnLinearNetwork.switch.ieee8021r.rTagHeaderInserter flowIncomingPacketLengths:sum 0
scalar TsnLinearNetwork.switch.ieee8021r.rTagHeaderChecker outgoingPackets:count 0
scalar TsnLinearNetwork.switch.ieee8021r.rTagHeaderChecker outgoingPacketLengths:sum 0
scalar TsnLinearNetwork.switch.ieee8021r.rTagHeaderChecker flowOutgoingPacketLengths:sum 0
scalar TsnLinearNetwork.switch.ieee8021r.rTagHeaderChecker incomingPackets:count 0
scalar TsnLinearNetwork.switch.ieee8021r.rTagHeaderChecker incomingPacketLengths:sum 0
scalar TsnLinearNetwork.switch.ieee8021r.rTagHeaderChecker flowIncomingPacketLengths:sum 0
scalar TsnLinearNetwork.switch.ieee8021r.rTagHeaderChecker droppedPackets:count 0
scalar TsnLinearNetwork.switch.ieee8021r.rTagHeaderChecker droppedPacketLengths:sum 0
scalar TsnLinearNetwork.switch.ieee8021r.rTagHeaderChecker flowDroppedPacketLengths:sum 0
scalar TsnLinearNetwork.switch.eth[0].macLayer.queue.classifier packets:count 0
scalar TsnLinearNetwork.switch.eth[0].macLayer.queue.classifier packetLengths:sum 0
scalar TsnLinearNetwork.switch.eth[0].macLayer.queue.queue[0] queueLength:last 0
scalar TsnLinearNetwork.switch.eth[0].macLayer.queue.queue[0] queueLength:max 0
scalar TsnLinearNetwork.switch.eth[0].macLayer.queue.queue[0] queueLength:timeavg 0
scalar TsnLinearNetwork.switch.eth[0].macLayer.queue.queue[0] queueBitLength:last 0
scalar TsnLinearNetwork.switch.eth[0].macLayer.queue.queue[0] queueBitLength:max 0
scalar TsnLinearNetwork.switch.eth[0].macLayer.queue.queue[0] queueBitLength:timeavg 0
scalar TsnLinearNetwork.switch.eth[0].macLayer.queue.queue[0] outgoingPackets:count 0
scalar TsnLinearNetwork.switch.eth[0].macLayer.queue.queue[0] outgoingPacketLengths:sum 0
scalar TsnLinearNetwork.switch.eth[0].macLayer.queue.queue[0] incomingPackets:count 0
scalar TsnLinearNetwork.switch.eth[0].macLayer.queue.queue[0] incomingPacketLengths:sum 0
scalar TsnLinearNetwork.switch.eth[0].macLayer.queue.queue[0] droppedPacketsQueueOverflow:count 0
scalar TsnLinearNetwork.switch.eth[0].macLayer.queue.queue[0] droppedPacketLengthsQueueOverflow:sum 0
scalar TsnLinearNetwork.switch.eth[0].macLayer.queue.queue[1] queueLength:last 0
scalar TsnLinearNetwork.switch.eth[0].macLayer.queue.queue[1] queueLength:max 0
scalar TsnLinearNetwork.switch.eth[0].macLayer.queue.queue[1] queueLength:timeavg 0
scalar TsnLinearNetwork.switch.eth[0].macLayer.queue.queue[1] queueBitLength:last 0
scalar TsnLinearNetwork.switch.eth[0].macLayer.queue.queue[1] queueBitLength:max 0
scalar TsnLinearNetwork.switch.eth[0].macLayer.queue.queue[1] queueBitLength:timeavg 0
scalar TsnLinearNetwork.switch.eth[0].macLayer.queue.queue[1] outgoingPackets:count 0
scalar TsnLinearNetwork.switch.eth[0].macLayer.queue.queue[1] outgoingPacketLengths:sum 0
scalar TsnLinearNetwork.switch.eth[0].macLayer.queue.queue[1] incomingPackets:count 0
scalar TsnLinearNetwork.switch.eth[0].macLayer.queue.queue[1] incomingPacketLengths:sum 0
scalar TsnLinearNetwork.switch.eth[0].macLayer.queue.queue[1] droppedPacketsQueueOverflow:count 0
scalar TsnLinearNetwork.switch.eth[0].macLayer.queue.queue[1] droppedPacketLengthsQueueOverflow:sum 0
scalar TsnLinearNetwork.switch.eth[0].macLayer.queue.transmissionSelectionAlgorithm[0] outgoingPackets:count 0
scalar TsnLinearNetwork.switch.eth[0].macLayer.queue.transmissionSelectionAlgorithm[0] outgoingPacketLengths:sum 0
scalar TsnLinearNetwork.switch.eth[0].macLayer.queue.transmissionSelectionAlgorithm[0] flowOutgoingPacketLengths:sum 0
scalar TsnLinearNetwork.switch.eth[0].macLayer.queue.transmissionSelectionAlgorithm[0] incomingPackets:count 0
scalar TsnLinearNetwork.switch.eth[0].macLayer.queue.transmissionSelectionAlgorithm[0] incomingPacketLengths:sum 0
scalar TsnLinearNetwork.switch.eth[0].macLayer.queue.transmissionSelectionAlgorithm[0] flowIncomingPacketLengths:sum 0
scalar TsnLinearNetwork.switch.eth[0].macLayer.queue.transmissionSelectionAlgorithm[1] outgoingPackets:count 0
scalar TsnLinearNetwork.switch.eth[0].macLayer.queue.transmissionSelectionAlgorithm[1] outgoingPacketLengths:sum 0
scalar TsnLinearNetwork.switch.eth[0].macLayer.queue.transmissionSelectionAlgorithm[1] flowOutgoingPacketLengths:sum 0
scalar TsnLinearNetwork.switch.eth[0].macLayer.queue.transmissionSelectionAlgorithm[1] incomingPackets:count 0
scalar TsnLinearNetwork.switch.eth[0].macLayer.queue.transmissionSelectionAlgorithm[1] incomingPacketLengths:sum 0
scalar TsnLinearNetwork.switch.eth[0].macLayer.queue.transmissionSelectionAlgorithm[1] flowIncomingPacketLengths:sum 0
scalar TsnLinearNetwork.switch.eth[0].macLayer.queue.transmissionGate[0] outgoingPackets:count 0
scalar TsnLinearNetwork.switch.eth[0].macLayer.queue.transmissionGate[0] outgoingPacketLengths:sum 0
scalar TsnLinearNetwork.switch.eth[0].macLayer.queue.transmissionGate[0] flowOutgoingPacketLengths:sum 0
scalar TsnLinearNetwork.switch.eth[0].macLayer.queue.transmissionGate[0] incomingPackets:count 0
scalar TsnLinearNetwork.switch.eth[0].macLayer.queue.transmissionGate[0] incomingPacketLengths:sum 0
scalar TsnLinearNetwork.switch.eth[0].macLayer.queue.transmissionGate[0] flowIncomingPacketLengths:sum 0
scalar TsnLinearNetwork.switch.eth[0].macLayer.queue.transmissionGate[1] outgoingPackets:count 0
scalar TsnLinearNetwork.switch.eth[0].macLayer.queue.transmissionGate[1] outgoingPacketLengths:sum 0
scalar TsnLinearNetwork.switch.eth[0].macLayer.queue.transmissionGate[1] flowOutgoingPacketLengths:sum 0
scalar TsnLinearNetwork.switch.eth[0].macLayer.queue.transmissionGate[1] incomingPackets:count 0
scalar TsnLinearNetwork.switch.eth[0].macLayer.queue.transmissionGate[1] incomingPacketLengths:sum 0
scalar TsnLinearNetwork.switch.eth[0].macLayer.queue.transmissionGate[1] flowIncomingPacketLengths:sum 0
scalar TsnLinearNetwork.switch.eth[0].macLayer.queue.transmissionSelection packets:count 0
scalar TsnLinearNetwork.switch.eth[0].macLayer.queue.transmissionSelection packetLengths:sum 0
scalar TsnLinearNetwork.switch.eth[0].macLayer.queue queueLength:last 0
scalar TsnLinearNetwork.switch.eth[0].macLayer.queue queueLength:max 0
scalar TsnLinearNetwork.switch.eth[0].macLayer.queue queueLength:timeavg 0
scalar TsnLinearNetwork.switch.eth[0].macLayer.queue queueBitLength:last 0
scalar TsnLinearNetwork.switch.eth[0].macLayer.queue queueBitLength:max 0
scalar TsnLinearNetwork.switch.eth[0].macLayer.queue queueBitLength:timeavg 0
scalar TsnLinearNetwork.switch.eth[0].macLayer.queue outgoingPackets:count 0
scalar TsnLinearNetwork.switch.eth[0].macLayer.queue outgoingPacketLengths:sum 0
scalar TsnLinearNetwork.switch.eth[0].macLayer.queue incomingPackets:count 0
scalar TsnLinearNetwork.switch.eth[0].macLayer.queue incomingPacketLengths:sum 0
scalar TsnLinearNetwork.switch.eth[0].macLayer.queue droppedPacketsQueueOverflow:count 0
scalar TsnLinearNetwork.switch.eth[0].macLayer.queue droppedPacketLengthsQueueOverflow:sum 0
scalar TsnLinearNetwork.switch.eth[0].macLayer.server incomingPackets:count 0
scalar TsnLinearNetwork.switch.eth[0].macLayer.server incomingPacketLengths:sum 0
scalar TsnLinearNetwork.switch.eth[0].macLayer.server outgoingPackets:count 0
scalar TsnLinearNetwork.switch.eth[0].macLayer.server outgoingPacketLengths:sum 0
scalar TsnLinearNetwork.switch.eth[0].macLayer.outboundEmitter outgoingPackets:count 0
scalar TsnLinearNetwork.switch.eth[0].macLayer.outboundEmitter outgoingPacketLengths:sum 0
scalar TsnLinearNetwork.switch.eth[0].macLayer.outboundEmitter flowOutgoingPacketLengths:sum 0
scalar TsnLinearNetwork.switch.eth[0].macLayer.outboundEmitter incomingPackets:count 0
scalar TsnLinearNetwork.switch.eth[0].macLayer.outboundEmitter incomingPacketLengths:sum 0
scalar TsnLinearNetwork.switch.eth[0].macLayer.outboundEmitter flowIncomingPacketLengths:sum 0
scalar TsnLinearNetwork.switch.eth[0].macLayer.fcsChecker outgoingPackets:count 67261
scalar TsnLinearNetwork.switch.eth[0].macLayer.fcsChecker outgoingPacketLengths:sum 564992400
scalar TsnLinearNetwork.switch.eth[0].macLayer.fcsChecker flowOutgoingPacketLengths:sum 0
scalar TsnLinearNetwork.switch.eth[0].macLayer.fcsChecker incomingPackets:count 67261
scalar TsnLinearNetwork.switch.eth[0].macLayer.fcsChecker incomingPacketLengths:sum 564992400
scalar TsnLinearNetwork.switch.eth[0].macLayer.fcsChecker flowIncomingPacketLengths:sum 0
scalar TsnLinearNetwork.switch.eth[0].macLayer.fcsChecker droppedPackets:count 0
scalar TsnLinearNetwork.switch.eth[0].macLayer.fcsChecker droppedPacketLengths:sum 0
scalar TsnLinearNetwork.switch.eth[0].macLayer.fcsChecker flowDroppedPacketLengths:sum 0
scalar TsnLinearNetwork.switch.eth[0].macLayer.inboundEmitter outgoingPackets:count 67261
scalar TsnLinearNetwork.switch.eth[0].macLayer.inboundEmitter outgoingPacketLengths:sum 564992400
scalar TsnLinearNetwork.switch.eth[0].macLayer.inboundEmitter flowOutgoingPacketLengths:sum 0
scalar TsnLinearNetwork.switch.eth[0].macLayer.inboundEmitter incomingPackets:count 67261
scalar TsnLinearNetwork.switch.eth[0].macLayer.inboundEmitter incomingPacketLengths:sum 564992400
scalar TsnLinearNetwork.switch.eth[0].macLayer.inboundEmitter flowIncomingPacketLengths:sum 0
scalar TsnLinearNetwork.switch.eth[0].phyLayer.phyHeaderInserter outgoingPackets:count 0
scalar TsnLinearNetwork.switch.eth[0].phyLayer.phyHeaderInserter outgoingPacketLengths:sum 0
scalar TsnLinearNetwork.switch.eth[0].phyLayer.phyHeaderInserter flowOutgoingPacketLengths:sum 0
scalar TsnLinearNetwork.switch.eth[0].phyLayer.phyHeaderInserter incomingPackets:count 0
scalar TsnLinearNetwork.switch.eth[0].phyLayer.phyHeaderInserter incomingPacketLengths:sum 0
scalar TsnLinearNetwork.switch.eth[0].phyLayer.phyHeaderInserter flowIncomingPacketLengths:sum 0
scalar TsnLinearNetwork.switch.eth[0].phyLayer.outboundEmitter outgoingPackets:count 0
scalar TsnLinearNetwork.switch.eth[0].phyLayer.outboundEmitter outgoingPacketLengths:sum 0
scalar TsnLinearNetwork.switch.eth[0].phyLayer.outboundEmitter flowOutgoingPacketLengths:sum 0
scalar TsnLinearNetwork.switch.eth[0].phyLayer.outboundEmitter incomingPackets:count 0
scalar TsnLinearNetwork.switch.eth[0].phyLayer.outboundEmitter incomingPacketLengths:sum 0
scalar TsnLinearNetwork.switch.eth[0].phyLayer.outboundEmitter flowIncomingPacketLengths:sum 0
scalar TsnLinearNetwork.switch.eth[0].phyLayer.transmitter propagationTime 4.9999999999999998e-08
scalar TsnLinearNetwork.switch.eth[0].phyLayer.phyHeaderChecker outgoingPackets:count 67261
scalar TsnLinearNetwork.switch.eth[0].phyLayer.phyHeaderChecker outgoingPacketLengths:sum 564992400
scalar TsnLinearNetwork.switch.eth[0].phyLayer.phyHeaderChecker flowOutgoingPacketLengths:sum 0
scalar TsnLinearNetwork.switch.eth[0].phyLayer.phyHeaderChecker incomingPackets:count 67261
scalar TsnLinearNetwork.switch.eth[0].phyLayer.phyHeaderChecker incomingPacketLengths:sum 569297104
scalar TsnLinearNetwork.switch.eth[0].phyLayer.phyHeaderChecker flowIncomingPacketLengths:sum 0
scalar TsnLinearNetwork.switch.eth[0].phyLayer.phyHeaderChecker droppedPackets:count 0
scalar TsnLinearNetwork.switch.eth[0].phyLayer.phyHeaderChecker droppedPacketLengths:sum 0
scalar TsnLinearNetwork.switch.eth[0].phyLayer.phyHeaderChecker flowDroppedPacketLengths:sum 0
scalar TsnLinearNetwork.switch.eth[0].phyLayer.inboundEmitter outgoingPackets:count 67261
scalar TsnLinearNetwork.switch.eth[0].phyLayer.inboundEmitter outgoingPacketLengths:sum 569297104
scalar TsnLinearNetwork.switch.eth[0].phyLayer.inboundEmitter flowOutgoingPacketLengths:sum 0
scalar TsnLinearNetwork.switch.eth[0].phyLayer.inboundEmitter incomingPackets:count 67261
scalar TsnLinearNetwork.switch.eth[0].phyLayer.inboundEmitter incomingPacketLengths:sum 569297104
scalar TsnLinearNetwork.switch.eth[0].phyLayer.inboundEmitter flowIncomingPacketLengths:sum 0
scalar TsnLinearNetwork.switch.eth[0] packetDropInterfaceDown:count 0
scalar TsnLinearNetwork.switch.eth[0] packetDropInterfaceDown:sum(packetBytes) 0
scalar TsnLinearNetwork.switch.eth[0] packetDropNoCarrier:count 0
scalar TsnLinearNetwork.switch.eth[0] packetDropNoCarrier:sum(packetBytes) 0
scalar TsnLinearNetwork.switch.eth[1].macLayer.queue.classifier packets:count 67261
scalar TsnLinearNetwork.switch.eth[1].macLayer.queue.classifier packetLengths:sum 564992400
scalar TsnLinearNetwork.switch.eth[1].macLayer.queue.queue[0] queueLength:last 0
scalar TsnLinearNetwork.switch.eth[1].macLayer.queue.queue[0] queueLength:max 269
scalar TsnLinearNetwork.switch.eth[1].macLayer.queue.queue[0] queueLength:timeavg 87.668909110704718
scalar TsnLinearNetwork.switch.eth[1].macLayer.queue.queue[0] queueBitLength:last 0
scalar TsnLinearNetwork.switch.eth[1].macLayer.queue.queue[0] queueBitLength:max 2259600
scalar TsnLinearNetwork.switch.eth[1].macLayer.queue.queue[0] queueBitLength:timeavg 736418.83652992104
scalar TsnLinearNetwork.switch.eth[1].macLayer.queue.queue[0] outgoingPackets:count 45282
scalar TsnLinearNetwork.switch.eth[1].macLayer.queue.queue[0] outgoingPacketLengths:sum 380368800
scalar TsnLinearNetwork.switch.eth[1].macLayer.queue.queue[0] incomingPackets:count 45282
scalar TsnLinearNetwork.switch.eth[1].macLayer.queue.queue[0] incomingPacketLengths:sum 380368800
scalar TsnLinearNetwork.switch.eth[1].macLayer.queue.queue[0] droppedPacketsQueueOverflow:count 0
scalar TsnLinearNetwork.switch.eth[1].macLayer.queue.queue[0] droppedPacketLengthsQueueOverflow:sum 0
scalar TsnLinearNetwork.switch.eth[1].macLayer.queue.queue[1] queueLength:last 303
scalar TsnLinearNetwork.switch.eth[1].macLayer.queue.queue[1] queueLength:max 960
scalar TsnLinearNetwork.switch.eth[1].macLayer.queue.queue[1] queueLength:timeavg 349.52242485479889
scalar TsnLinearNetwork.switch.eth[1].macLayer.queue.queue[1] queueBitLength:last 2545200
scalar TsnLinearNetwork.switch.eth[1].macLayer.queue.queue[1] queueBitLength:max 8064000
scalar TsnLinearNetwork.switch.eth[1].macLayer.queue.queue[1] queueBitLength:timeavg 2935988.3687803238
scalar TsnLinearNetwork.switch.eth[1].macLayer.queue.queue[1] outgoingPackets:count 21676
scalar TsnLinearNetwork.switch.eth[1].macLayer.queue.queue[1] outgoingPacketLengths:sum 182078400
scalar TsnLinearNetwork.switch.eth[1].macLayer.queue.queue[1] incomingPackets:count 21979
scalar TsnLinearNetwork.switch.eth[1].macLayer.queue.queue[1] incomingPacketLengths:sum 184623600
scalar TsnLinearNetwork.switch.eth[1].macLayer.queue.queue[1] droppedPacketsQueueOverflow:count 0
scalar TsnLinearNetwork.switch.eth[1].macLayer.queue.queue[1] droppedPacketLengthsQueueOverflow:sum 0
scalar TsnLinearNetwork.switch.eth[1].macLayer.queue.transmissionSelectionAlgorithm[0] outgoingPackets:count 45282
scalar TsnLinearNetwork.switch.eth[1].macLayer.queue.transmissionSelectionAlgorithm[0] outgoingPacketLengths:sum 380368800
scalar TsnLinearNetwork.switch.eth[1].macLayer.queue.transmissionSelectionAlgorithm[0] flowOutgoingPacketLengths:sum 0
scalar TsnLinearNetwork.switch.eth[1].macLayer.queue.transmissionSelectionAlgorithm[0] incomingPackets:count 45282
scalar TsnLinearNetwork.switch.eth[1].macLayer.queue.transmissionSelectionAlgorithm[0] incomingPacketLengths:sum 380368800
scalar TsnLinearNetwork.switch.eth[1].macLayer.queue.transmissionSelectionAlgorithm[0] flowIncomingPacketLengths:sum 0
scalar TsnLinearNetwork.switch.eth[1].macLayer.queue.transmissionSelectionAlgorithm[1] outgoingPackets:count 21676
scalar TsnLinearNetwork.switch.eth[1].macLayer.queue.transmissionSelectionAlgorithm[1] outgoingPacketLengths:sum 182078400
scalar TsnLinearNetwork.switch.eth[1].macLayer.queue.transmissionSelectionAlgorithm[1] flowOutgoingPacketLengths:sum 0
scalar TsnLinearNetwork.switch.eth[1].macLayer.queue.transmissionSelectionAlgorithm[1] incomingPackets:count 21676
scalar TsnLinearNetwork.switch.eth[1].macLayer.queue.transmissionSelectionAlgorithm[1] incomingPacketLengths:sum 182078400
scalar TsnLinearNetwork.switch.eth[1].macLayer.queue.transmissionSelectionAlgorithm[1] flowIncomingPacketLengths:sum 0
scalar TsnLinearNetwork.switch.eth[1].macLayer.queue.transmissionGate[0] outgoingPackets:count 45282
scalar TsnLinearNetwork.switch.eth[1].macLayer.queue.transmissionGate[0] outgoingPacketLengths:sum 380368800
scalar TsnLinearNetwork.switch.eth[1].macLayer.queue.transmissionGate[0] flowOutgoingPacketLengths:sum 0
scalar TsnLinearNetwork.switch.eth[1].macLayer.queue.transmissionGate[0] incomingPackets:count 45282
scalar TsnLinearNetwork.switch.eth[1].macLayer.queue.transmissionGate[0] incomingPacketLengths:sum 380368800
scalar TsnLinearNetwork.switch.eth[1].macLayer.queue.transmissionGate[0] flowIncomingPacketLengths:sum 0
scalar TsnLinearNetwork.switch.eth[1].macLayer.queue.transmissionGate[1] outgoingPackets:count 21676
scalar TsnLinearNetwork.switch.eth[1].macLayer.queue.transmissionGate[1] outgoingPacketLengths:sum 182078400
scalar TsnLinearNetwork.switch.eth[1].macLayer.queue.transmissionGate[1] flowOutgoingPacketLengths:sum 0
scalar TsnLinearNetwork.switch.eth[1].macLayer.queue.transmissionGate[1] incomingPackets:count 21676
scalar TsnLinearNetwork.switch.eth[1].macLayer.queue.transmissionGate[1] incomingPacketLengths:sum 182078400
scalar TsnLinearNetwork.switch.eth[1].macLayer.queue.transmissionGate[1] flowIncomingPacketLengths:sum 0
scalar TsnLinearNetwork.switch.eth[1].macLayer.queue.transmissionSelection packets:count 66958
scalar TsnLinearNetwork.switch.eth[1].macLayer.queue.transmissionSelection packetLengths:sum 562447200
scalar TsnLinearNetwork.switch.eth[1].macLayer.queue queueLength:last 303
scalar TsnLinearNetwork.switch.eth[1].macLayer.queue queueLength:max 1164
scalar TsnLinearNetwork.switch.eth[1].macLayer.queue queueLength:timeavg 437.19133396552041
scalar TsnLinearNetwork.switch.eth[1].macLayer.queue queueBitLength:last 2545200
scalar TsnLinearNetwork.switch.eth[1].macLayer.queue queueBitLength:max 9777600
scalar TsnLinearNetwork.switch.eth[1].macLayer.queue queueBitLength:timeavg 3672407.2053102711
scalar TsnLinearNetwork.switch.eth[1].macLayer.queue outgoingPackets:count 66958
scalar TsnLinearNetwork.switch.eth[1].macLayer.queue outgoingPacketLengths:sum 562447200
scalar TsnLinearNetwork.switch.eth[1].macLayer.queue incomingPackets:count 67261
scalar TsnLinearNetwork.switch.eth[1].macLayer.queue incomingPacketLengths:sum 564992400
scalar TsnLinearNetwork.switch.eth[1].macLayer.queue droppedPacketsQueueOverflow:count 0
scalar TsnLinearNetwork.switch.eth[1].macLayer.queue droppedPacketLengthsQueueOverflow:sum 0
scalar TsnLinearNetwork.switch.eth[1].macLayer.server incomingPackets:count 66958
scalar TsnLinearNetwork.switch.eth[1].macLayer.server incomingPacketLengths:sum 562447200
scalar TsnLinearNetwork.switch.eth[1].macLayer.server outgoingPackets:count 66958
scalar TsnLinearNetwork.switch.eth[1].macLayer.server outgoingPacketLengths:sum 562447200
scalar TsnLinearNetwork.switch.eth[1].macLayer.outboundEmitter outgoingPackets:count 66958
scalar TsnLinearNetwork.switch.eth[1].macLayer.outboundEmitter outgoingPacketLengths:sum 562447200
scalar TsnLinearNetwork.switch.eth[1].macLayer.outboundEmitter flowOutgoingPacketLengths:sum 0
scalar TsnLinearNetwork.switch.eth[1].macLayer.outboundEmitter incomingPackets:count 66958
scalar TsnLinearNetwork.switch.eth[1].macLayer.outboundEmitter incomingPacketLengths:sum 562447200
scalar TsnLinearNetwork.switch.eth[1].macLayer.outboundEmitter flowIncomingPacketLengths:sum 0
scalar TsnLinearNetwork.switch.eth[1].macLayer.fcsChecker outgoingPackets:count 0
scalar TsnLinearNetwork.switch.eth[1].macLayer.fcsChecker outgoingPacketLengths:sum 0
scalar TsnLinearNetwork.switch.eth[1].macLayer.fcsChecker flowOutgoingPacketLengths:sum 0
scalar TsnLinearNetwork.switch.eth[1].macLayer.fcsChecker incomingPackets:count 0
scalar TsnLinearNetwork.switch.eth[1].macLayer.fcsChecker incomingPacketLengths:sum 0
scalar TsnLinearNetwork.switch.eth[1].macLayer.fcsChecker flowIncomingPacketLengths:sum 0
scalar TsnLinearNetwork.switch.eth[1].macLayer.fcsChecker droppedPackets:count 0
scalar TsnLinearNetwork.switch.eth[1].macLayer.fcsChecker droppedPacketLengths:sum 0
scalar TsnLinearNetwork.switch.eth[1].macLayer.fcsChecker flowDroppedPacketLengths:sum 0
scalar TsnLinearNetwork.switch.eth[1].macLayer.inboundEmitter outgoingPackets:count 0
scalar TsnLinearNetwork.switch.eth[1].macLayer.inboundEmitter outgoingPacketLengths:sum 0
scalar TsnLinearNetwork.switch.eth[1].macLayer.inboundEmitter flowOutgoingPacketLengths:sum 0
scalar TsnLinearNetwork.switch.eth[1].macLayer.inboundEmitter incomingPackets:count 0
scalar TsnLinearNetwork.switch.eth[1].macLayer.inboundEmitter incomingPacketLengths:sum 0
scalar TsnLinearNetwork.switch.eth[1].macLayer.inboundEmitter flowIncomingPacketLengths:sum 0
scalar TsnLinearNetwork.switch.eth[1].phyLayer.phyHeaderInserter outgoingPackets:count 66958
scalar TsnLinearNetwork.switch.eth[1].phyLayer.phyHeaderInserter outgoingPacketLengths:sum 566732512
scalar TsnLinearNetwork.switch.eth[1].phyLayer.phyHeaderInserter flowOutgoingPacketLengths:sum 0
scalar TsnLinearNetwork.switch.eth[1].phyLayer.phyHeaderInserter incomingPackets:count 66958
scalar TsnLinearNetwork.switch.eth[1].phyLayer.phyHeaderInserter incomingPacketLengths:sum 562447200
scalar TsnLinearNetwork.switch.eth[1].phyLayer.phyHeaderInserter flowIncomingPacketLengths:sum 0
scalar TsnLinearNetwork.switch.eth[1].phyLayer.outboundEmitter outgoingPackets:count 66958
scalar TsnLinearNetwork.switch.eth[1].phyLayer.outboundEmitter outgoingPacketLengths:sum 566732512
scalar TsnLinearNetwork.switch.eth[1].phyLayer.outboundEmitter flowOutgoingPacketLengths:sum 0
scalar TsnLinearNetwork.switch.eth[1].phyLayer.outboundEmitter incomingPackets:count 66958
scalar TsnLinearNetwork.switch.eth[1].phyLayer.outboundEmitter incomingPacketLengths:sum 566732512
scalar TsnLinearNetwork.switch.eth[1].phyLayer.outboundEmitter flowIncomingPacketLengths:sum 0
scalar TsnLinearNetwork.switch.eth[1].phyLayer.transmitter propagationTime 4.9999999999999998e-08
scalar TsnLinearNetwork.switch.eth[1].phyLayer.phyHeaderChecker outgoingPackets:count 0
scalar TsnLinearNetwork.switch.eth[1].phyLayer.phyHeaderChecker outgoingPacketLengths:sum 0
scalar TsnLinearNetwork.switch.eth[1].phyLayer.phyHeaderChecker flowOutgoingPacketLengths:sum 0
scalar TsnLinearNetwork.switch.eth[1].phyLayer.phyHeaderChecker incomingPackets:count 0
scalar TsnLinearNetwork.switch.eth[1].phyLayer.phyHeaderChecker incomingPacketLengths:sum 0
scalar TsnLinearNetwork.switch.eth[1].phyLayer.phyHeaderChecker flowIncomingPacketLengths:sum 0
scalar TsnLinearNetwork.switch.eth[1].phyLayer.phyHeaderChecker droppedPackets:count 0
scalar TsnLinearNetwork.switch.eth[1].phyLayer.phyHeaderChecker droppedPacketLengths:sum 0
scalar TsnLinearNetwork.switch.eth[1].phyLayer.phyHeaderChecker flowDroppedPacketLengths:sum 0
scalar TsnLinearNetwork.switch.eth[1].phyLayer.inboundEmitter outgoingPackets:count 0
scalar TsnLinearNetwork.switch.eth[1].phyLayer.inboundEmitter outgoingPacketLengths:sum 0
scalar TsnLinearNetwork.switch.eth[1].phyLayer.inboundEmitter flowOutgoingPacketLengths:sum 0
scalar TsnLinearNetwork.switch.eth[1].phyLayer.inboundEmitter incomingPackets:count 0
scalar TsnLinearNetwork.switch.eth[1].phyLayer.inboundEmitter incomingPacketLengths:sum 0
scalar TsnLinearNetwork.switch.eth[1].phyLayer.inboundEmitter flowIncomingPacketLengths:sum 0
scalar TsnLinearNetwork.switch.eth[1] packetDropInterfaceDown:count 0
scalar TsnLinearNetwork.switch.eth[1] packetDropInterfaceDown:sum(packetBytes) 0
scalar TsnLinearNetwork.switch.eth[1] packetDropNoCarrier:count 0
scalar TsnLinearNetwork.switch.eth[1] packetDropNoCarrier:sum(packetBytes) 0
scalar TsnLinearNetwork.server.bridging.directionReverser.reverser outgoingPackets:count 0
scalar TsnLinearNetwork.server.bridging.directionReverser.reverser outgoingPacketLengths:sum 0
scalar TsnLinearNetwork.server.bridging.directionReverser.reverser flowOutgoingPacketLengths:sum 0
scalar TsnLinearNetwork.server.bridging.directionReverser.reverser incomingPackets:count 0
scalar TsnLinearNetwork.server.bridging.directionReverser.reverser incomingPacketLengths:sum 0
scalar TsnLinearNetwork.server.bridging.directionReverser.reverser flowIncomingPacketLengths:sum 0
scalar TsnLinearNetwork.server.bridging.directionReverser.join packets:count 0
scalar TsnLinearNetwork.server.bridging.directionReverser.join packetLengths:sum 0
scalar TsnLinearNetwork.server.bridging.streamCoder.decoder outgoingPackets:count 66958
scalar TsnLinearNetwork.server.bridging.streamCoder.decoder outgoingPacketLengths:sum 550662592
scalar TsnLinearNetwork.server.bridging.streamCoder.decoder flowOutgoingPacketLengths:sum 0
scalar TsnLinearNetwork.server.bridging.streamCoder.decoder incomingPackets:count 66958
scalar TsnLinearNetwork.server.bridging.streamCoder.decoder incomingPacketLengths:sum 550662592
scalar TsnLinearNetwork.server.bridging.streamCoder.decoder flowIncomingPacketLengths:sum 0
scalar TsnLinearNetwork.server.bridging.streamCoder.encoder outgoingPackets:count 0
scalar TsnLinearNetwork.server.bridging.streamCoder.encoder outgoingPacketLengths:sum 0
scalar TsnLinearNetwork.server.bridging.streamCoder.encoder flowOutgoingPacketLengths:sum 0
scalar TsnLinearNetwork.server.bridging.streamCoder.encoder incomingPackets:count 0
scalar TsnLinearNetwork.server.bridging.streamCoder.encoder incomingPacketLengths:sum 0
scalar TsnLinearNetwork.server.bridging.streamCoder.encoder flowIncomingPacketLengths:sum 0
scalar TsnLinearNetwork.server.ethernet.macHeaderInserter outgoingPackets:count 0
scalar TsnLinearNetwork.server.ethernet.macHeaderInserter outgoingPacketLengths:sum 0
scalar TsnLinearNetwork.server.ethernet.macHeaderInserter flowOutgoingPacketLengths:sum 0
scalar TsnLinearNetwork.server.ethernet.macHeaderInserter incomingPackets:count 0
scalar TsnLinearNetwork.server.ethernet.macHeaderInserter incomingPacketLengths:sum 0
scalar TsnLinearNetwork.server.ethernet.macHeaderInserter flowIncomingPacketLengths:sum 0
scalar TsnLinearNetwork.server.ethernet.paddingInserter outgoingPackets:count 0
scalar TsnLinearNetwork.server.ethernet.paddingInserter outgoingPacketLengths:sum 0
scalar TsnLinearNetwork.server.ethernet.paddingInserter flowOutgoingPacketLengths:sum 0
scalar TsnLinearNetwork.server.ethernet.paddingInserter incomingPackets:count 0
scalar TsnLinearNetwork.server.ethernet.paddingInserter incomingPacketLengths:sum 0
scalar TsnLinearNetwork.server.ethernet.paddingInserter flowIncomingPacketLengths:sum 0
scalar TsnLinearNetwork.server.ethernet.fcsInserter outgoingPackets:count 0
scalar TsnLinearNetwork.server.ethernet.fcsInserter outgoingPacketLengths:sum 0
scalar TsnLinearNetwork.server.ethernet.fcsInserter flowOutgoingPacketLengths:sum 0
scalar TsnLinearNetwork.server.ethernet.fcsInserter incomingPackets:count 0
scalar TsnLinearNetwork.server.ethernet.fcsInserter incomingPacketLengths:sum 0
scalar TsnLinearNetwork.server.ethernet.fcsInserter flowIncomingPacketLengths:sum 0
scalar TsnLinearNetwork.server.ethernet.macHeaderChecker outgoingPackets:count 66958
scalar TsnLinearNetwork.server.ethernet.macHeaderChecker outgoingPacketLengths:sum 552805248
scalar TsnLinearNetwork.server.ethernet.macHeaderChecker flowOutgoingPacketLengths:sum 0
scalar TsnLinearNetwork.server.ethernet.macHeaderChecker incomingPackets:count 66958
scalar TsnLinearNetwork.server.ethernet.macHeaderChecker incomingPacketLengths:sum 560304544
scalar TsnLinearNetwork.server.ethernet.macHeaderChecker flowIncomingPacketLengths:sum 0
scalar TsnLinearNetwork.server.ethernet.macHeaderChecker droppedPackets:count 0
scalar TsnLinearNetwork.server.ethernet.macHeaderChecker droppedPacketLengths:sum 0
scalar TsnLinearNetwork.server.ethernet.macHeaderChecker flowDroppedPacketLengths:sum 0
scalar TsnLinearNetwork.server.ethernet.fcsChecker outgoingPackets:count 66958
scalar TsnLinearNetwork.server.ethernet.fcsChecker outgoingPacketLengths:sum 560304544
scalar TsnLinearNetwork.server.ethernet.fcsChecker flowOutgoingPacketLengths:sum 0
scalar TsnLinearNetwork.server.ethernet.fcsChecker incomingPackets:count 66958
scalar TsnLinearNetwork.server.ethernet.fcsChecker incomingPacketLengths:sum 562447200
scalar TsnLinearNetwork.server.ethernet.fcsChecker flowIncomingPacketLengths:sum 0
scalar TsnLinearNetwork.server.ethernet.fcsChecker droppedPackets:count 0
scalar TsnLinearNetwork.server.ethernet.fcsChecker droppedPacketLengths:sum 0
scalar TsnLinearNetwork.server.ethernet.fcsChecker flowDroppedPacketLengths:sum 0
scalar TsnLinearNetwork.server.ieee8021q.qTagHeaderInserter outgoingPackets:count 0
scalar TsnLinearNetwork.server.ieee8021q.qTagHeaderInserter outgoingPacketLengths:sum 0
scalar TsnLinearNetwork.server.ieee8021q.qTagHeaderInserter flowOutgoingPacketLengths:sum 0
scalar TsnLinearNetwork.server.ieee8021q.qTagHeaderInserter incomingPackets:count 0
scalar TsnLinearNetwork.server.ieee8021q.qTagHeaderInserter incomingPacketLengths:sum 0
scalar TsnLinearNetwork.server.ieee8021q.qTagHeaderInserter flowIncomingPacketLengths:sum 0
scalar TsnLinearNetwork.server.ieee8021q.qTagHeaderChecker outgoingPackets:count 66958
scalar TsnLinearNetwork.server.ieee8021q.qTagHeaderChecker outgoingPacketLengths:sum 550662592
scalar TsnLinearNetwork.server.ieee8021q.qTagHeaderChecker flowOutgoingPacketLengths:sum 0
scalar TsnLinearNetwork.server.ieee8021q.qTagHeaderChecker incomingPackets:count 66958
scalar TsnLinearNetwork.server.ieee8021q.qTagHeaderChecker incomingPacketLengths:sum 552805248
scalar TsnLinearNetwork.server.ieee8021q.qTagHeaderChecker flowIncomingPacketLengths:sum 0
scalar TsnLinearNetwork.server.ieee8021q.qTagHeaderChecker droppedPackets:count 0
scalar TsnLinearNetwork.server.ieee8021q.qTagHeaderChecker droppedPacketLengths:sum 0
scalar TsnLinearNetwork.server.ieee8021q.qTagHeaderChecker flowDroppedPacketLengths:sum 0
scalar TsnLinearNetwork.server.lo[0].lo rcvdPkFromHl:count 0
scalar TsnLinearNetwork.server.lo[0].lo rcvdPkFromHl:sum(packetBytes) 0
scalar TsnLinearNetwork.server.lo[0].lo passedUpPk:count 0
scalar TsnLinearNetwork.server.lo[0].lo passedUpPk:sum(packetBytes) 0
scalar TsnLinearNetwork.server.lo[0] packetDropInterfaceDown:count 0
scalar TsnLinearNetwork.server.lo[0] packetDropInterfaceDown:sum(packetBytes) 0
scalar TsnLinearNetwork.server.lo[0] packetDropNoCarrier:count 0
scalar TsnLinearNetwork.server.lo[0] packetDropNoCarrier:sum(packetBytes) 0
scalar TsnLinearNetwork.server.eth[0].macLayer.queue queueLength:last 0
scalar TsnLinearNetwork.server.eth[0].macLayer.queue queueLength:max 0
scalar TsnLinearNetwork.server.eth[0].macLayer.queue queueLength:timeavg 0
scalar TsnLinearNetwork.server.eth[0].macLayer.queue queueBitLength:last 0
scalar TsnLinearNetwork.server.eth[0].macLayer.queue queueBitLength:max 0
scalar TsnLinearNetwork.server.eth[0].macLayer.queue queueBitLength:timeavg 0
scalar TsnLinearNetwork.server.eth[0].macLayer.queue outgoingPackets:count 0
scalar TsnLinearNetwork.server.eth[0].macLayer.queue outgoingPacketLengths:sum 0
scalar TsnLinearNetwork.server.eth[0].macLayer.queue incomingPackets:count 0
scalar TsnLinearNetwork.server.eth[0].macLayer.queue incomingPacketLengths:sum 0
scalar TsnLinearNetwork.server.eth[0].macLayer.queue droppedPacketsQueueOverflow:count 0
scalar TsnLinearNetwork.server.eth[0].macLayer.queue droppedPacketLengthsQueueOverflow:sum 0
scalar TsnLinearNetwork.server.eth[0].macLayer.server incomingPackets:count 0
scalar TsnLinearNetwork.server.eth[0].macLayer.server incomingPacketLengths:sum 0
scalar TsnLinearNetwork.server.eth[0].macLayer.server outgoingPackets:count 0
scalar TsnLinearNetwork.server.eth[0].macLayer.server outgoingPacketLengths:sum 0
scalar TsnLinearNetwork.server.eth[0].macLayer.outboundEmitter outgoingPackets:count 0
scalar TsnLinearNetwork.server.eth[0].macLayer.outboundEmitter outgoingPacketLengths:sum 0
scalar TsnLinearNetwork.server.eth[0].macLayer.outboundEmitter flowOutgoingPacketLengths:sum 0
scalar TsnLinearNetwork.server.eth[0].macLayer.outboundEmitter incomingPackets:count 0
scalar TsnLinearNetwork.server.eth[0].macLayer.outboundEmitter incomingPacketLengths:sum 0
scalar TsnLinearNetwork.server.eth[0].macLayer.outboundEmitter flowIncomingPacketLengths:sum 0
scalar TsnLinearNetwork.server.eth[0].macLayer.fcsChecker outgoingPackets:count 66958
scalar TsnLinearNetwork.server.eth[0].macLayer.fcsChecker outgoingPacketLengths:sum 562447200
scalar TsnLinearNetwork.server.eth[0].macLayer.fcsChecker flowOutgoingPacketLengths:sum 0
scalar TsnLinearNetwork.server.eth[0].macLayer.fcsChecker incomingPackets:count 66958
scalar TsnLinearNetwork.server.eth[0].macLayer.fcsChecker incomingPacketLengths:sum 562447200
scalar TsnLinearNetwork.server.eth[0].macLayer.fcsChecker flowIncomingPacketLengths:sum 0
scalar TsnLinearNetwork.server.eth[0].macLayer.fcsChecker droppedPackets:count 0
scalar TsnLinearNetwork.server.eth[0].macLayer.fcsChecker droppedPacketLengths:sum 0
scalar TsnLinearNetwork.server.eth[0].macLayer.fcsChecker flowDroppedPacketLengths:sum 0
scalar TsnLinearNetwork.server.eth[0].macLayer.inboundEmitter outgoingPackets:count 66958
scalar TsnLinearNetwork.server.eth[0].macLayer.inboundEmitter outgoingPacketLengths:sum 562447200
scalar TsnLinearNetwork.server.eth[0].macLayer.inboundEmitter flowOutgoingPacketLengths:sum 0
scalar TsnLinearNetwork.server.eth[0].macLayer.inboundEmitter incomingPackets:count 66958
scalar TsnLinearNetwork.server.eth[0].macLayer.inboundEmitter incomingPacketLengths:sum 562447200
scalar TsnLinearNetwork.server.eth[0].macLayer.inboundEmitter flowIncomingPacketLengths:sum 0
scalar TsnLinearNetwork.server.eth[0].phyLayer.phyHeaderInserter outgoingPackets:count 0
scalar TsnLinearNetwork.server.eth[0].phyLayer.phyHeaderInserter outgoingPacketLengths:sum 0
scalar TsnLinearNetwork.server.eth[0].phyLayer.phyHeaderInserter flowOutgoingPacketLengths:sum 0
scalar TsnLinearNetwork.server.eth[0].phyLayer.phyHeaderInserter incomingPackets:count 0
scalar TsnLinearNetwork.server.eth[0].phyLayer.phyHeaderInserter incomingPacketLengths:sum 0
scalar TsnLinearNetwork.server.eth[0].phyLayer.phyHeaderInserter flowIncomingPacketLengths:sum 0
scalar TsnLinearNetwork.server.eth[0].phyLayer.outboundEmitter outgoingPackets:count 0
scalar TsnLinearNetwork.server.eth[0].phyLayer.outboundEmitter outgoingPacketLengths:sum 0
scalar TsnLinearNetwork.server.eth[0].phyLayer.outboundEmitter flowOutgoingPacketLengths:sum 0
scalar TsnLinearNetwork.server.eth[0].phyLayer.outboundEmitter incomingPackets:count 0
scalar TsnLinearNetwork.server.eth[0].phyLayer.outboundEmitter incomingPacketLengths:sum 0
scalar TsnLinearNetwork.server.eth[0].phyLayer.outboundEmitter flowIncomingPacketLengths:sum 0
scalar TsnLinearNetwork.server.eth[0].phyLayer.transmitter propagationTime 4.9999999999999998e-08
scalar TsnLinearNetwork.server.eth[0].phyLayer.phyHeaderChecker outgoingPackets:count 66958
scalar TsnLinearNetwork.server.eth[0].phyLayer.phyHeaderChecker outgoingPacketLengths:sum 562447200
scalar TsnLinearNetwork.server.eth[0].phyLayer.phyHeaderChecker flowOutgoingPacketLengths:sum 0
scalar TsnLinearNetwork.server.eth[0].phyLayer.phyHeaderChecker incomingPackets:count 66958
scalar TsnLinearNetwork.server.eth[0].phyLayer.phyHeaderChecker incomingPacketLengths:sum 566732512
scalar TsnLinearNetwork.server.eth[0].phyLayer.phyHeaderChecker flowIncomingPacketLengths:sum 0
scalar TsnLinearNetwork.server.eth[0].phyLayer.phyHeaderChecker droppedPackets:count 0
scalar TsnLinearNetwork.server.eth[0].phyLayer.phyHeaderChecker droppedPacketLengths:sum 0
scalar TsnLinearNetwork.server.eth[0].phyLayer.phyHeaderChecker flowDroppedPacketLengths:sum 0
scalar TsnLinearNetwork.server.eth[0].phyLayer.inboundEmitter outgoingPackets:count 66958
scalar TsnLinearNetwork.server.eth[0].phyLayer.inboundEmitter outgoingPacketLengths:sum 566732512
scalar TsnLinearNetwork.server.eth[0].phyLayer.inboundEmitter flowOutgoingPacketLengths:sum 0
scalar TsnLinearNetwork.server.eth[0].phyLayer.inboundEmitter incomingPackets:count 66958
scalar TsnLinearNetwork.server.eth[0].phyLayer.inboundEmitter incomingPacketLengths:sum 566732512
scalar TsnLinearNetwork.server.eth[0].phyLayer.inboundEmitter flowIncomingPacketLengths:sum 0
scalar TsnLinearNetwork.server.eth[0] packetDropInterfaceDown:count 0
scalar TsnLinearNetwork.server.eth[0] packetDropInterfaceDown:sum(packetBytes) 0
scalar TsnLinearNetwork.server.eth[0] packetDropNoCarrier:count 0
scalar TsnLinearNetwork.server.eth[0] packetDropNoCarrier:sum(packetBytes) 0
scalar TsnLinearNetwork.server.ipv4.ip packetDropAddressResolutionFailed:count 0
scalar TsnLinearNetwork.server.ipv4.ip packetDropAddressResolutionFailed:sum(packetBytes) 0
scalar TsnLinearNetwork.server.ipv4.ip packetDropHopLimitReached:count 0
scalar TsnLinearNetwork.server.ipv4.ip packetDropHopLimitReached:sum(packetBytes) 0
scalar TsnLinearNetwork.server.ipv4.ip packetDropForwardingDisabled:count 0
scalar TsnLinearNetwork.server.ipv4.ip packetDropForwardingDisabled:sum(packetBytes) 0
scalar TsnLinearNetwork.server.ipv4.ip packetDropLifetimeExpired:count 0
scalar TsnLinearNetwork.server.ipv4.ip packetDropLifetimeExpired:sum(packetBytes) 0
scalar TsnLinearNetwork.server.ipv4.ip packetDropNoInterfaceFound:count 0
scalar TsnLinearNetwork.server.ipv4.ip packetDropNoInterfaceFound:sum(packetBytes) 0
scalar TsnLinearNetwork.server.ipv4.ip packetDropNoRouteFound:count 0
scalar TsnLinearNetwork.server.ipv4.ip packetDropNoRouteFound:sum(packetBytes) 0
scalar TsnLinearNetwork.server.ipv4.ip packetDropUndefined:count 0
scalar TsnLinearNetwork.server.ipv4.ip packetDropUndefined:sum(packetBytes) 0
scalar TsnLinearNetwork.server.udp packetReceived:count 66958
scalar TsnLinearNetwork.server.udp packetReceived:sum(packetBytes) 67493664
scalar TsnLinearNetwork.server.udp packetSent:count 0
scalar TsnLinearNetwork.server.udp packetSent:sum(packetBytes) 0
scalar TsnLinearNetwork.server.udp passedUpPk:count 66958
scalar TsnLinearNetwork.server.udp droppedPkWrongPort:count 0
scalar TsnLinearNetwork.server.udp droppedPkBadChecksum:count 0
scalar TsnLinearNetwork.server.app[0].sink packets:count 45282
scalar TsnLinearNetwork.server.app[0].sink packetLengths:sum 362256000
scalar TsnLinearNetwork.server.app[0].sink droppedPackets:count 45282
scalar TsnLinearNetwork.server.app[0].sink droppedPacketLengths:sum 362256000
scalar TsnLinearNetwork.server.app[0].io "packets sent" 0
scalar TsnLinearNetwork.server.app[0].io "packets received" 45282
scalar TsnLinearNetwork.server.app[0].io packetReceived:count 45282
scalar TsnLinearNetwork.server.app[0].io packetReceived:sum(packetBytes) 45282000
scalar TsnLinearNetwork.server.app[0].io packetSent:count 0
scalar TsnLinearNetwork.server.app[0].io packetSent:sum(packetBytes) 0
scalar TsnLinearNetwork.server.app[1].sink packets:count 21676
scalar TsnLinearNetwork.server.app[1].sink packetLengths:sum 173408000
scalar TsnLinearNetwork.server.app[1].sink droppedPackets:count 21676
scalar TsnLinearNetwork.server.app[1].sink droppedPacketLengths:sum 173408000
scalar TsnLinearNetwork.server.app[1].io "packets sent" 0
scalar TsnLinearNetwork.server.app[1].io "packets received" 21676
scalar TsnLinearNetwork.server.app[1].io packetReceived:count 21676
scalar TsnLinearNetwork.server.app[1].io packetReceived:sum(packetBytes) 21676000
scalar TsnLinearNetwork.server.app[1].io packetSent:count 0
scalar TsnLinearNetwork.server.app[1].io packetSent:sum(packetBytes) 0
scalar TsnLinearNetwork.client.bridging.directionReverser.reverser outgoingPacketLengths:histogram:count 0
scalar TsnLinearNetwork.client.bridging.directionReverser.reverser outgoingPacketLengths:histogram:sumweights 0
scalar TsnLinearNetwork.client.bridging.directionReverser.reverser outgoingPacketLengths:histogram:mean -nan
scalar TsnLinearNetwork.client.bridging.directionReverser.reverser outgoingPacketLengths:histogram:stddev nan
scalar TsnLinearNetwork.client.bridging.directionReverser.reverser outgoingPacketLengths:histogram:min nan
scalar TsnLinearNetwork.client.bridging.directionReverser.reverser outgoingPacketLengths:histogram:max nan
scalar TsnLinearNetwork.client.bridging.directionReverser.reverser outgoingPacketLengths:histogram:numbins 1
scalar TsnLinearNetwork.client.bridging.directionReverser.reverser outgoingPacketLengths:histogram:rangemin 0
scalar TsnLinearNetwork.client.bridging.directionReverser.reverser outgoingPacketLengths:histogram:rangemax 1
scalar TsnLinearNetwork.client.bridging.directionReverser.reverser outgoingPacketLengths:histogram:underflows 0
scalar TsnLinearNetwork.client.bridging.directionReverser.reverser outgoingPacketLengths:histogram:overflows 0
scalar TsnLinearNetwork.client.bridging.directionReverser.reverser flowOutgoingPacketLengths:histogram:count 0
scalar TsnLinearNetwork.client.bridging.directionReverser.reverser flowOutgoingPacketLengths:histogram:sumweights 0
scalar TsnLinearNetwork.client.bridging.directionReverser.reverser flowOutgoingPacketLengths:histogram:mean -nan
scalar TsnLinearNetwork.client.bridging.directionReverser.reverser flowOutgoingPacketLengths:histogram:stddev nan
scalar TsnLinearNetwork.client.bridging.directionReverser.reverser flowOutgoingPacketLengths:histogram:min nan
scalar TsnLinearNetwork.client.bridging.directionReverser.reverser flowOutgoingPacketLengths:histogram:max nan
scalar TsnLinearNetwork.client.bridging.directionReverser.reverser flowOutgoingPacketLengths:histogram:numbins 1
scalar TsnLinearNetwork.client.bridging.directionReverser.reverser flowOutgoingPacketLengths:histogram:rangemin 0
scalar TsnLinearNetwork.client.bridging.directionReverser.reverser flowOutgoingPacketLengths:histogram:rangemax 1
scalar TsnLinearNetwork.client.bridging.directionReverser.reverser flowOutgoingPacketLengths:histogram:underflows 0
scalar TsnLinearNetwork.client.bridging.directionReverser.reverser flowOutgoingPacketLengths:histogram:overflows 0
scalar TsnLinearNetwork.client.bridging.directionReverser.reverser incomingPacketLengths:histogram:count 0
scalar TsnLinearNetwork.client.bridging.directionReverser.reverser incomingPacketLengths:histogram:sumweights 0
scalar TsnLinearNetwork.client.bridging.directionReverser.reverser incomingPacketLengths:histogram:mean -nan
scalar TsnLinearNetwork.client.bridging.directionReverser.reverser incomingPacketLengths:histogram:stddev nan
scalar TsnLinearNetwork.client.bridging.directionReverser.reverser incomingPacketLengths:histogram:min nan
scalar TsnLinearNetwork.client.bridging.directionReverser.reverser incomingPacketLengths:histogram:max nan
scalar TsnLinearNetwork.client.bridging.directionReverser.reverser incomingPacketLengths:histogram:numbins 1
scalar TsnLinearNetwork.client.bridging.directionReverser.reverser incomingPacketLengths:histogram:rangemin 0
scalar TsnLinearNetwork.client.bridging.directionReverser.reverser incomingPacketLengths:histogram:rangemax 1
scalar TsnLinearNetwork.client.bridging.directionReverser.reverser incomingPacketLengths:histogram:underflows 0
scalar TsnLinearNetwork.client.bridging.directionReverser.reverser incomingPacketLengths:histogram:overflows 0
scalar TsnLinearNetwork.client.bridging.directionReverser.reverser flowIncomingPacketLengths:histogram:count 0
scalar TsnLinearNetwork.client.bridging.directionReverser.reverser flowIncomingPacketLengths:histogram:sumweights 0
scalar TsnLinearNetwork.client.bridging.directionReverser.reverser flowIncomingPacketLengths:histogram:mean -nan
scalar TsnLinearNetwork.client.bridging.directionReverser.reverser flowIncomingPacketLengths:histogram:stddev nan
scalar TsnLinearNetwork.client.bridging.directionReverser.reverser flowIncomingPacketLengths:histogram:min nan
scalar TsnLinearNetwork.client.bridging.directionReverser.reverser flowIncomingPacketLengths:histogram:max nan
scalar TsnLinearNetwork.client.bridging.directionReverser.reverser flowIncomingPacketLengths:histogram:numbins 1
scalar TsnLinearNetwork.client.bridging.directionReverser.reverser flowIncomingPacketLengths:histogram:rangemin 0
scalar TsnLinearNetwork.client.bridging.directionReverser.reverser flowIncomingPacketLengths:histogram:rangemax 1
scalar TsnLinearNetwork.client.bridging.directionReverser.reverser flowIncomingPacketLengths:histogram:underflows 0
scalar TsnLinearNetwork.client.bridging.directionReverser.reverser flowIncomingPacketLengths:histogram:overflows 0
scalar TsnLinearNetwork.client.bridging.directionReverser.join packetLengths:histogram:count 0
scalar TsnLinearNetwork.client.bridging.directionReverser.join packetLengths:histogram:sumweights 0
scalar TsnLinearNetwork.client.bridging.directionReverser.join packetLengths:histogram:mean -nan
scalar TsnLinearNetwork.client.bridging.directionReverser.join packetLengths:histogram:stddev nan
scalar TsnLinearNetwork.client.bridging.directionReverser.join packetLengths:histogram:min nan
scalar TsnLinearNetwork.client.bridging.directionReverser.join packetLengths:histogram:max nan
scalar TsnLinearNetwork.client.bridging.directionReverser.join packetLengths:histogram:numbins 1
scalar TsnLinearNetwork.client.bridging.directionReverser.join packetLengths:histogram:rangemin 0
scalar TsnLinearNetwork.client.bridging.directionReverser.join packetLengths:histogram:rangemax 1
scalar TsnLinearNetwork.client.bridging.directionReverser.join packetLengths:histogram:underflows 0
scalar TsnLinearNetwork.client.bridging.directionReverser.join packetLengths:histogram:overflows 0
scalar TsnLinearNetwork.client.bridging.streamIdentifier.identifier outgoingPacketLengths:histogram:count 67262
scalar TsnLinearNetwork.client.bridging.streamIdentifier.identifier outgoingPacketLengths:histogram:sumweights 67262
scalar TsnLinearNetwork.client.bridging.streamIdentifier.identifier outgoingPacketLengths:histogram:mean 8224
scalar TsnLinearNetwork.client.bridging.streamIdentifier.identifier outgoingPacketLengths:histogram:stddev 0
scalar TsnLinearNetwork.client.bridging.streamIdentifier.identifier outgoingPacketLengths:histogram:min 8224
scalar TsnLinearNetwork.client.bridging.streamIdentifier.identifier outgoingPacketLengths:histogram:max 8224
scalar TsnLinearNetwork.client.bridging.streamIdentifier.identifier outgoingPacketLengths:histogram:numbins 2
scalar TsnLinearNetwork.client.bridging.streamIdentifier.identifier outgoingPacketLengths:histogram:rangemin 8223
scalar TsnLinearNetwork.client.bridging.streamIdentifier.identifier outgoingPacketLengths:histogram:rangemax 8225
scalar TsnLinearNetwork.client.bridging.streamIdentifier.identifier outgoingPacketLengths:histogram:underflows 0
scalar TsnLinearNetwork.client.bridging.streamIdentifier.identifier outgoingPacketLengths:histogram:overflows 0
scalar TsnLinearNetwork.client.bridging.streamIdentifier.identifier flowOutgoingPacketLengths:histogram:count 0
scalar TsnLinearNetwork.client.bridging.streamIdentifier.identifier flowOutgoingPacketLengths:histogram:sumweights 0
scalar TsnLinearNetwork.client.bridging.streamIdentifier.identifier flowOutgoingPacketLengths:histogram:mean -nan
scalar TsnLinearNetwork.client.bridging.streamIdentifier.identifier flowOutgoingPacketLengths:histogram:stddev nan
scalar TsnLinearNetwork.client.bridging.streamIdentifier.identifier flowOutgoingPacketLengths:histogram:min nan
scalar TsnLinearNetwork.client.bridging.streamIdentifier.identifier flowOutgoingPacketLengths:histogram:max nan
scalar TsnLinearNetwork.client.bridging.streamIdentifier.identifier flowOutgoingPacketLengths:histogram:numbins 1
scalar TsnLinearNetwork.client.bridging.streamIdentifier.identifier flowOutgoingPacketLengths:histogram:rangemin 0
scalar TsnLinearNetwork.client.bridging.streamIdentifier.identifier flowOutgoingPacketLengths:histogram:rangemax 1
scalar TsnLinearNetwork.client.bridging.streamIdentifier.identifier flowOutgoingPacketLengths:histogram:underflows 0
scalar TsnLinearNetwork.client.bridging.streamIdentifier.identifier flowOutgoingPacketLengths:histogram:overflows 0
scalar TsnLinearNetwork.client.bridging.streamIdentifier.identifier incomingPacketLengths:histogram:count 67262
scalar TsnLinearNetwork.client.bridging.streamIdentifier.identifier incomingPacketLengths:histogram:sumweights 67262
scalar TsnLinearNetwork.client.bridging.streamIdentifier.identifier incomingPacketLengths:histogram:mean 8224
scalar TsnLinearNetwork.client.bridging.streamIdentifier.identifier incomingPacketLengths:histogram:stddev 0
scalar TsnLinearNetwork.client.bridging.streamIdentifier.identifier incomingPacketLengths:histogram:min 8224
scalar TsnLinearNetwork.client.bridging.streamIdentifier.identifier incomingPacketLengths:histogram:max 8224
scalar TsnLinearNetwork.client.bridging.streamIdentifier.identifier incomingPacketLengths:histogram:numbins 2
scalar TsnLinearNetwork.client.bridging.streamIdentifier.identifier incomingPacketLengths:histogram:rangemin 8223
scalar TsnLinearNetwork.client.bridging.streamIdentifier.identifier incomingPacketLengths:histogram:rangemax 8225
scalar TsnLinearNetwork.client.bridging.streamIdentifier.identifier incomingPacketLengths:histogram:underflows 0
scalar TsnLinearNetwork.client.bridging.streamIdentifier.identifier incomingPacketLengths:histogram:overflows 0
scalar TsnLinearNetwork.client.bridging.streamIdentifier.identifier flowIncomingPacketLengths:histogram:count 0
scalar TsnLinearNetwork.client.bridging.streamIdentifier.identifier flowIncomingPacketLengths:histogram:sumweights 0
scalar TsnLinearNetwork.client.bridging.streamIdentifier.identifier flowIncomingPacketLengths:histogram:mean -nan
scalar TsnLinearNetwork.client.bridging.streamIdentifier.identifier flowIncomingPacketLengths:histogram:stddev nan
scalar TsnLinearNetwork.client.bridging.streamIdentifier.identifier flowIncomingPacketLengths:histogram:min nan
scalar TsnLinearNetwork.client.bridging.streamIdentifier.identifier flowIncomingPacketLengths:histogram:max nan
scalar TsnLinearNetwork.client.bridging.streamIdentifier.identifier flowIncomingPacketLengths:histogram:numbins 1
scalar TsnLinearNetwork.client.bridging.streamIdentifier.identifier flowIncomingPacketLengths:histogram:rangemin 0
scalar TsnLinearNetwork.client.bridging.streamIdentifier.identifier flowIncomingPacketLengths:histogram:rangemax 1
scalar TsnLinearNetwork.client.bridging.streamIdentifier.identifier flowIncomingPacketLengths:histogram:underflows 0
scalar TsnLinearNetwork.client.bridging.streamIdentifier.identifier flowIncomingPacketLengths:histogram:overflows 0
scalar TsnLinearNetwork.client.bridging.streamCoder.decoder outgoingPacketLengths:histogram:count 0
scalar TsnLinearNetwork.client.bridging.streamCoder.decoder outgoingPacketLengths:histogram:sumweights 0
scalar TsnLinearNetwork.client.bridging.streamCoder.decoder outgoingPacketLengths:histogram:mean -nan
scalar TsnLinearNetwork.client.bridging.streamCoder.decoder outgoingPacketLengths:histogram:stddev nan
scalar TsnLinearNetwork.client.bridging.streamCoder.decoder outgoingPacketLengths:histogram:min nan
scalar TsnLinearNetwork.client.bridging.streamCoder.decoder outgoingPacketLengths:histogram:max nan
scalar TsnLinearNetwork.client.bridging.streamCoder.decoder outgoingPacketLengths:histogram:numbins 1
scalar TsnLinearNetwork.client.bridging.streamCoder.decoder outgoingPacketLengths:histogram:rangemin 0
scalar TsnLinearNetwork.client.bridging.streamCoder.decoder outgoingPacketLengths:histogram:rangemax 1
scalar TsnLinearNetwork.client.bridging.streamCoder.decoder outgoingPacketLengths:histogram:underflows 0
scalar TsnLinearNetwork.client.bridging.streamCoder.decoder outgoingPacketLengths:histogram:overflows 0
scalar TsnLinearNetwork.client.bridging.streamCoder.decoder flowOutgoingPacketLengths:histogram:count 0
scalar TsnLinearNetwork.client.bridging.streamCoder.decoder flowOutgoingPacketLengths:histogram:sumweights 0
scalar TsnLinearNetwork.client.bridging.streamCoder.decoder flowOutgoingPacketLengths:histogram:mean -nan
scalar TsnLinearNetwork.client.bridging.streamCoder.decoder flowOutgoingPacketLengths:histogram:stddev nan
scalar TsnLinearNetwork.client.bridging.streamCoder.decoder flowOutgoingPacketLengths:histogram:min nan
scalar TsnLinearNetwork.client.bridging.streamCoder.decoder flowOutgoingPacketLengths:histogram:max nan
scalar TsnLinearNetwork.client.bridging.streamCoder.decoder flowOutgoingPacketLengths:histogram:numbins 1
scalar TsnLinearNetwork.client.bridging.streamCoder.decoder flowOutgoingPacketLengths:histogram:rangemin 0
scalar TsnLinearNetwork.client.bridging.streamCoder.decoder flowOutgoingPacketLengths:histogram:rangemax 1
scalar TsnLinearNetwork.client.bridging.streamCoder.decoder flowOutgoingPacketLengths:histogram:underflows 0
scalar TsnLinearNetwork.client.bridging.streamCoder.decoder flowOutgoingPacketLengths:histogram:overflows 0
scalar TsnLinearNetwork.client.bridging.streamCoder.decoder incomingPacketLengths:histogram:count 0
scalar TsnLinearNetwork.client.bridging.streamCoder.decoder incomingPacketLengths:histogram:sumweights 0
scalar TsnLinearNetwork.client.bridging.streamCoder.decoder incomingPacketLengths:histogram:mean -nan
scalar TsnLinearNetwork.client.bridging.streamCoder.decoder incomingPacketLengths:histogram:stddev nan
scalar TsnLinearNetwork.client.bridging.streamCoder.decoder incomingPacketLengths:histogram:min nan
scalar TsnLinearNetwork.client.bridging.streamCoder.decoder incomingPacketLengths:histogram:max nan
scalar TsnLinearNetwork.client.bridging.streamCoder.decoder incomingPacketLengths:histogram:numbins 1
scalar TsnLinearNetwork.client.bridging.streamCoder.decoder incomingPacketLengths:histogram:rangemin 0
scalar TsnLinearNetwork.client.bridging.streamCoder.decoder incomingPacketLengths:histogram:rangemax 1
scalar TsnLinearNetwork.client.bridging.streamCoder.decoder incomingPacketLengths:histogram:underflows 0
scalar TsnLinearNetwork.client.bridging.streamCoder.decoder incomingPacketLengths:histogram:overflows 0
scalar TsnLinearNetwork.client.bridging.streamCoder.decoder flowIncomingPacketLengths:histogram:count 0
scalar TsnLinearNetwork.client.bridging.streamCoder.decoder flowIncomingPacketLengths:histogram:sumweights 0
scalar TsnLinearNetwork.client.bridging.streamCoder.decoder flowIncomingPacketLengths:histogram:mean -nan
scalar TsnLinearNetwork.client.bridging.streamCoder.decoder flowIncomingPacketLengths:histogram:stddev nan
[...]
scalar TsnLinearNetwork.server.udp packetReceived:vector(packetBytes):min 1008
scalar TsnLinearNetwork.server.udp packetReceived:vector(packetBytes):max 1008
scalar TsnLinearNetwork.server.udp packetReceived:vector(packetBytes):starttime 0.00016938000000000004
scalar TsnLinearNetwork.server.udp packetReceived:vector(packetBytes):endtime 9.9998732153890018
scalar TsnLinearNetwork.server.udp passedUpPk:vector(count):count 66959
scalar TsnLinearNetwork.server.udp passedUpPk:vector(count):sum 2241720361
scalar TsnLinearNetwork.server.udp passedUpPk:vector(count):sumweights 66959
scalar TsnLinearNetwork.server.udp passedUpPk:vector(count):mean 33479
scalar TsnLinearNetwork.server.udp passedUpPk:vector(count):stddev 19329.542674362474
scalar TsnLinearNetwork.server.udp passedUpPk:vector(count):min 0
scalar TsnLinearNetwork.server.udp passedUpPk:vector(count):max 66958
scalar TsnLinearNetwork.server.udp passedUpPk:vector(count):starttime 0
scalar TsnLinearNetwork.server.udp passedUpPk:vector(count):endtime 9.9998732153890018
scalar TsnLinearNetwork.server.udp droppedPkWrongPort:vector(count):count 1
scalar TsnLinearNetwork.server.udp droppedPkWrongPort:vector(count):sum 0
scalar TsnLinearNetwork.server.udp droppedPkWrongPort:vector(count):sumweights 1
scalar TsnLinearNetwork.server.udp droppedPkWrongPort:vector(count):mean 0
scalar TsnLinearNetwork.server.udp droppedPkWrongPort:vector(count):stddev nan
scalar TsnLinearNetwork.server.udp droppedPkWrongPort:vector(count):min 0
scalar TsnLinearNetwork.server.udp droppedPkWrongPort:vector(count):max 0
scalar TsnLinearNetwork.server.udp droppedPkWrongPort:vector(count):starttime 0
scalar TsnLinearNetwork.server.udp droppedPkWrongPort:vector(count):endtime 0
scalar TsnLinearNetwork.server.udp droppedPkBadChecksum:vector(count):count 1
scalar TsnLinearNetwork.server.udp droppedPkBadChecksum:vector(count):sum 0
scalar TsnLinearNetwork.server.udp droppedPkBadChecksum:vector(count):sumweights 1
scalar TsnLinearNetwork.server.udp droppedPkBadChecksum:vector(count):mean 0
scalar TsnLinearNetwork.server.udp droppedPkBadChecksum:vector(count):stddev nan
scalar TsnLinearNetwork.server.udp droppedPkBadChecksum:vector(count):min 0
scalar TsnLinearNetwork.server.udp droppedPkBadChecksum:vector(count):max 0
scalar TsnLinearNetwork.server.udp droppedPkBadChecksum:vector(count):starttime 0
scalar TsnLinearNetwork.server.udp droppedPkBadChecksum:vector(count):endtime 0
scalar TsnLinearNetwork.server.app[0].sink droppedPacketLengths:vector:count 45282
scalar TsnLinearNetwork.server.app[0].sink droppedPacketLengths:vector:sum 362256000
scalar TsnLinearNetwork.server.app[0].sink droppedPacketLengths:vector:sumweights 45282
scalar TsnLinearNetwork.server.app[0].sink droppedPacketLengths:vector:mean 8000
scalar TsnLinearNetwork.server.app[0].sink droppedPacketLengths:vector:stddev 0
scalar TsnLinearNetwork.server.app[0].sink droppedPacketLengths:vector:min 8000
scalar TsnLinearNetwork.server.app[0].sink droppedPacketLengths:vector:max 8000
scalar TsnLinearNetwork.server.app[0].sink droppedPacketLengths:vector:starttime 0.00016938000000000004
scalar TsnLinearNetwork.server.app[0].sink droppedPacketLengths:vector:endtime 9.9998732153890018
scalar TsnLinearNetwork.server.app[0].sink droppedDataRate:vector:count 453
scalar TsnLinearNetwork.server.app[0].sink droppedDataRate:vector:sum 16716630540.240904
scalar TsnLinearNetwork.server.app[0].sink droppedDataRate:vector:sumweights 453
scalar TsnLinearNetwork.server.app[0].sink droppedDataRate:vector:mean 36902054.172717229
scalar TsnLinearNetwork.server.app[0].sink droppedDataRate:vector:stddev 4715117.8491185401
scalar TsnLinearNetwork.server.app[0].sink droppedDataRate:vector:min 27275053.304770295
scalar TsnLinearNetwork.server.app[0].sink droppedDataRate:vector:max 41272504.361807235
scalar TsnLinearNetwork.server.app[0].sink droppedDataRate:vector:starttime 0.024084690000000006
scalar TsnLinearNetwork.server.app[0].sink droppedDataRate:vector:endtime 10
scalar TsnLinearNetwork.server.app[0].sink packetLengths:vector:count 45282
scalar TsnLinearNetwork.server.app[0].sink packetLengths:vector:sum 362256000
scalar TsnLinearNetwork.server.app[0].sink packetLengths:vector:sumweights 45282
scalar TsnLinearNetwork.server.app[0].sink packetLengths:vector:mean 8000
scalar TsnLinearNetwork.server.app[0].sink packetLengths:vector:stddev 0
scalar TsnLinearNetwork.server.app[0].sink packetLengths:vector:min 8000
scalar TsnLinearNetwork.server.app[0].sink packetLengths:vector:max 8000
scalar TsnLinearNetwork.server.app[0].sink packetLengths:vector:starttime 0.00016938000000000004
scalar TsnLinearNetwork.server.app[0].sink packetLengths:vector:endtime 9.9998732153890018
scalar TsnLinearNetwork.server.app[0].sink dataRate:vector:count 453
scalar TsnLinearNetwork.server.app[0].sink dataRate:vector:sum 16716630540.240904
scalar TsnLinearNetwork.server.app[0].sink dataRate:vector:sumweights 453
scalar TsnLinearNetwork.server.app[0].sink dataRate:vector:mean 36902054.172717229
scalar TsnLinearNetwork.server.app[0].sink dataRate:vector:stddev 4715117.8491185401
scalar TsnLinearNetwork.server.app[0].sink dataRate:vector:min 27275053.304770295
scalar TsnLinearNetwork.server.app[0].sink dataRate:vector:max 41272504.361807235
scalar TsnLinearNetwork.server.app[0].sink dataRate:vector:starttime 0.024084690000000006
scalar TsnLinearNetwork.server.app[0].sink dataRate:vector:endtime 10
scalar TsnLinearNetwork.server.app[0].sink meanBitLifeTimePerPacket:vector:count 45282
scalar TsnLinearNetwork.server.app[0].sink meanBitLifeTimePerPacket:vector:sum 884.72570146675844
scalar TsnLinearNetwork.server.app[0].sink meanBitLifeTimePerPacket:vector:sumweights 45282
scalar TsnLinearNetwork.server.app[0].sink meanBitLifeTimePerPacket:vector:mean 0.019538132182031678
scalar TsnLinearNetwork.server.app[0].sink meanBitLifeTimePerPacket:vector:stddev 0.020073031789455943
scalar TsnLinearNetwork.server.app[0].sink meanBitLifeTimePerPacket:vector:min 0.00016938000000000001
scalar TsnLinearNetwork.server.app[0].sink meanBitLifeTimePerPacket:vector:max 0.054277158095
scalar TsnLinearNetwork.server.app[0].sink meanBitLifeTimePerPacket:vector:starttime 0.00016938000000000004
scalar TsnLinearNetwork.server.app[0].sink meanBitLifeTimePerPacket:vector:endtime 9.9998732153890018
scalar TsnLinearNetwork.server.app[0].sink packetLifeTime:vector:count 45282
scalar TsnLinearNetwork.server.app[0].sink packetLifeTime:vector:sum 884.72570146675821
scalar TsnLinearNetwork.server.app[0].sink packetLifeTime:vector:sumweights 45282
scalar TsnLinearNetwork.server.app[0].sink packetLifeTime:vector:mean 0.019538132182031674
scalar TsnLinearNetwork.server.app[0].sink packetLifeTime:vector:stddev 0.020073031789455947
scalar TsnLinearNetwork.server.app[0].sink packetLifeTime:vector:min 0.00016938000000000001
scalar TsnLinearNetwork.server.app[0].sink packetLifeTime:vector:max 0.054277158095
scalar TsnLinearNetwork.server.app[0].sink packetLifeTime:vector:starttime 0.00016938000000000004
scalar TsnLinearNetwork.server.app[0].sink packetLifeTime:vector:endtime 9.9998732153890018
scalar TsnLinearNetwork.server.app[0].sink packetJitter:vector:count 45282
scalar TsnLinearNetwork.server.app[0].sink packetJitter:vector:sum 0.0001693800000000488
scalar TsnLinearNetwork.server.app[0].sink packetJitter:vector:sumweights 45282
scalar TsnLinearNetwork.server.app[0].sink packetJitter:vector:mean 3.7405591625822355e-09
scalar TsnLinearNetwork.server.app[0].sink packetJitter:vector:stddev 0.00038408328281078533
scalar TsnLinearNetwork.server.app[0].sink packetJitter:vector:min -0.00015188064000000012
scalar TsnLinearNetwork.server.app[0].sink packetJitter:vector:max 0.0021500771270000002
scalar TsnLinearNetwork.server.app[0].sink packetJitter:vector:starttime 0.00016938000000000004
scalar TsnLinearNetwork.server.app[0].sink packetJitter:vector:endtime 9.9998732153890018
scalar TsnLinearNetwork.server.app[0].sink packetDelayDifferenceToMean:vector:count 45282
scalar TsnLinearNetwork.server.app[0].sink packetDelayDifferenceToMean:vector:sum -47.465991379120453
scalar TsnLinearNetwork.server.app[0].sink packetDelayDifferenceToMean:vector:sumweights 45282
scalar TsnLinearNetwork.server.app[0].sink packetDelayDifferenceToMean:vector:mean -0.0010482308948173767
scalar TsnLinearNetwork.server.app[0].sink packetDelayDifferenceToMean:vector:stddev 0.020044860724972254
scalar TsnLinearNetwork.server.app[0].sink packetDelayDifferenceToMean:vector:min -0.035004629015416303
scalar TsnLinearNetwork.server.app[0].sink packetDelayDifferenceToMean:vector:max 0.026746924255569706
scalar TsnLinearNetwork.server.app[0].sink packetDelayDifferenceToMean:vector:starttime 0.00016938000000000004
scalar TsnLinearNetwork.server.app[0].sink packetDelayDifferenceToMean:vector:endtime 9.9998732153890018
scalar TsnLinearNetwork.server.app[0].sink packetDelayVariation:vector:count 45282
scalar TsnLinearNetwork.server.app[0].sink packetDelayVariation:vector:sum 840.96071500356652
scalar TsnLinearNetwork.server.app[0].sink packetDelayVariation:vector:sumweights 45282
scalar TsnLinearNetwork.server.app[0].sink packetDelayVariation:vector:mean 0.018571633651419252
scalar TsnLinearNetwork.server.app[0].sink packetDelayVariation:vector:stddev 0.0043175813124574601
scalar TsnLinearNetwork.server.app[0].sink packetDelayVariation:vector:min 0
scalar TsnLinearNetwork.server.app[0].sink packetDelayVariation:vector:max 0.020481890986842458
scalar TsnLinearNetwork.server.app[0].sink packetDelayVariation:vector:starttime 0.00016938000000000004
scalar TsnLinearNetwork.server.app[0].sink packetDelayVariation:vector:endtime 9.9998732153890018
scalar TsnLinearNetwork.server.app[0].io packetSent:vector(packetBytes):count 0
scalar TsnLinearNetwork.server.app[0].io packetSent:vector(packetBytes):sum 0
scalar TsnLinearNetwork.server.app[0].io packetSent:vector(packetBytes):sumweights 0
scalar TsnLinearNetwork.server.app[0].io packetSent:vector(packetBytes):mean -nan
scalar TsnLinearNetwork.server.app[0].io packetSent:vector(packetBytes):stddev nan
scalar TsnLinearNetwork.server.app[0].io packetSent:vector(packetBytes):min inf
scalar TsnLinearNetwork.server.app[0].io packetSent:vector(packetBytes):max -inf
scalar TsnLinearNetwork.server.app[0].io packetSent:vector(packetBytes):starttime nan
scalar TsnLinearNetwork.server.app[0].io packetSent:vector(packetBytes):endtime nan
scalar TsnLinearNetwork.server.app[0].io packetReceived:vector(packetBytes):count 45282
scalar TsnLinearNetwork.server.app[0].io packetReceived:vector(packetBytes):sum 45282000
scalar TsnLinearNetwork.server.app[0].io packetReceived:vector(packetBytes):sumweights 45282
scalar TsnLinearNetwork.server.app[0].io packetReceived:vector(packetBytes):mean 1000
scalar TsnLinearNetwork.server.app[0].io packetReceived:vector(packetBytes):stddev 0
scalar TsnLinearNetwork.server.app[0].io packetReceived:vector(packetBytes):min 1000
scalar TsnLinearNetwork.server.app[0].io packetReceived:vector(packetBytes):max 1000
scalar TsnLinearNetwork.server.app[0].io packetReceived:vector(packetBytes):starttime 0.00016938000000000004
scalar TsnLinearNetwork.server.app[0].io packetReceived:vector(packetBytes):endtime 9.9998732153890018
scalar TsnLinearNetwork.server.app[1].sink droppedPacketLengths:vector:count 21676
scalar TsnLinearNetwork.server.app[1].sink droppedPacketLengths:vector:sum 173408000
scalar TsnLinearNetwork.server.app[1].sink droppedPacketLengths:vector:sumweights 21676
scalar TsnLinearNetwork.server.app[1].sink droppedPacketLengths:vector:mean 8000
scalar TsnLinearNetwork.server.app[1].sink droppedPacketLengths:vector:stddev 0
scalar TsnLinearNetwork.server.app[1].sink droppedPacketLengths:vector:min 8000
scalar TsnLinearNetwork.server.app[1].sink droppedPacketLengths:vector:max 8000
scalar TsnLinearNetwork.server.app[1].sink droppedPacketLengths:vector:starttime 0.0040846900000000011
scalar TsnLinearNetwork.server.app[1].sink droppedPacketLengths:vector:endtime 9.9959733704240019
scalar TsnLinearNetwork.server.app[1].sink droppedDataRate:vector:count 222
scalar TsnLinearNetwork.server.app[1].sink droppedDataRate:vector:sum 4097551081.5551014
scalar TsnLinearNetwork.server.app[1].sink droppedDataRate:vector:sumweights 222
scalar TsnLinearNetwork.server.app[1].sink droppedDataRate:vector:mean 18457437.30430226
scalar TsnLinearNetwork.server.app[1].sink droppedDataRate:vector:stddev 3745851.2735774992
scalar TsnLinearNetwork.server.app[1].sink droppedDataRate:vector:min 640000
scalar TsnLinearNetwork.server.app[1].sink droppedDataRate:vector:max 21399892.935265653
scalar TsnLinearNetwork.server.app[1].sink droppedDataRate:vector:starttime 0.047021525522000007
scalar TsnLinearNetwork.server.app[1].sink droppedDataRate:vector:endtime 10
scalar TsnLinearNetwork.server.app[1].sink packetLengths:vector:count 21676
scalar TsnLinearNetwork.server.app[1].sink packetLengths:vector:sum 173408000
scalar TsnLinearNetwork.server.app[1].sink packetLengths:vector:sumweights 21676
scalar TsnLinearNetwork.server.app[1].sink packetLengths:vector:mean 8000
scalar TsnLinearNetwork.server.app[1].sink packetLengths:vector:stddev 0
scalar TsnLinearNetwork.server.app[1].sink packetLengths:vector:min 8000
scalar TsnLinearNetwork.server.app[1].sink packetLengths:vector:max 8000
scalar TsnLinearNetwork.server.app[1].sink packetLengths:vector:starttime 0.0040846900000000011
scalar TsnLinearNetwork.server.app[1].sink packetLengths:vector:endtime 9.9959733704240019
scalar TsnLinearNetwork.server.app[1].sink dataRate:vector:count 222
scalar TsnLinearNetwork.server.app[1].sink dataRate:vector:sum 4097551081.5551014
scalar TsnLinearNetwork.server.app[1].sink dataRate:vector:sumweights 222
scalar TsnLinearNetwork.server.app[1].sink dataRate:vector:mean 18457437.30430226
scalar TsnLinearNetwork.server.app[1].sink dataRate:vector:stddev 3745851.2735774992
scalar TsnLinearNetwork.server.app[1].sink dataRate:vector:min 640000
scalar TsnLinearNetwork.server.app[1].sink dataRate:vector:max 21399892.935265653
scalar TsnLinearNetwork.server.app[1].sink dataRate:vector:starttime 0.047021525522000007
scalar TsnLinearNetwork.server.app[1].sink dataRate:vector:endtime 10
scalar TsnLinearNetwork.server.app[1].sink meanBitLifeTimePerPacket:vector:count 21676
scalar TsnLinearNetwork.server.app[1].sink meanBitLifeTimePerPacket:vector:sum 3451.3047923406962
scalar TsnLinearNetwork.server.app[1].sink meanBitLifeTimePerPacket:vector:sumweights 21676
scalar TsnLinearNetwork.server.app[1].sink meanBitLifeTimePerPacket:vector:mean 0.15922240230396273
scalar TsnLinearNetwork.server.app[1].sink meanBitLifeTimePerPacket:vector:stddev 0.12728737646332874
scalar TsnLinearNetwork.server.app[1].sink meanBitLifeTimePerPacket:vector:min 0.00016938000000000001
scalar TsnLinearNetwork.server.app[1].sink meanBitLifeTimePerPacket:vector:max 0.38744767404399999
scalar TsnLinearNetwork.server.app[1].sink meanBitLifeTimePerPacket:vector:starttime 0.0040846900000000011
scalar TsnLinearNetwork.server.app[1].sink meanBitLifeTimePerPacket:vector:endtime 9.9959733704240019
scalar TsnLinearNetwork.server.app[1].sink packetLifeTime:vector:count 21676
scalar TsnLinearNetwork.server.app[1].sink packetLifeTime:vector:sum 3451.3047923406957
scalar TsnLinearNetwork.server.app[1].sink packetLifeTime:vector:sumweights 21676
scalar TsnLinearNetwork.server.app[1].sink packetLifeTime:vector:mean 0.1592224023039627
scalar TsnLinearNetwork.server.app[1].sink packetLifeTime:vector:stddev 0.1272873764633288
scalar TsnLinearNetwork.server.app[1].sink packetLifeTime:vector:min 0.00016938000000000001
scalar TsnLinearNetwork.server.app[1].sink packetLifeTime:vector:max 0.38744767404399999
scalar TsnLinearNetwork.server.app[1].sink packetLifeTime:vector:starttime 0.0040846900000000011
scalar TsnLinearNetwork.server.app[1].sink packetLifeTime:vector:endtime 9.9959733704240019
scalar TsnLinearNetwork.server.app[1].sink packetJitter:vector:count 21676
scalar TsnLinearNetwork.server.app[1].sink packetJitter:vector:sum 0.24807314103199959
scalar TsnLinearNetwork.server.app[1].sink packetJitter:vector:sumweights 21676
scalar TsnLinearNetwork.server.app[1].sink packetJitter:vector:mean 1.14445996047241e-05
scalar TsnLinearNetwork.server.app[1].sink packetJitter:vector:stddev 0.001079065498676475
scalar TsnLinearNetwork.server.app[1].sink packetJitter:vector:min -0.0040709078129999993
scalar TsnLinearNetwork.server.app[1].sink packetJitter:vector:max 0.004152209758
scalar TsnLinearNetwork.server.app[1].sink packetJitter:vector:starttime 0.0040846900000000011
scalar TsnLinearNetwork.server.app[1].sink packetJitter:vector:endtime 9.9959733704240019
scalar TsnLinearNetwork.server.app[1].sink packetDelayDifferenceToMean:vector:count 21676
scalar TsnLinearNetwork.server.app[1].sink packetDelayDifferenceToMean:vector:sum -838.88121991272328
scalar TsnLinearNetwork.server.app[1].sink packetDelayDifferenceToMean:vector:sumweights 21676
scalar TsnLinearNetwork.server.app[1].sink packetDelayDifferenceToMean:vector:mean -0.038700923598114195
scalar TsnLinearNetwork.server.app[1].sink packetDelayDifferenceToMean:vector:stddev 0.12125367419269378
scalar TsnLinearNetwork.server.app[1].sink packetDelayDifferenceToMean:vector:min -0.2369456514739828
scalar TsnLinearNetwork.server.app[1].sink packetDelayDifferenceToMean:vector:max 0.18474151930046234
scalar TsnLinearNetwork.server.app[1].sink packetDelayDifferenceToMean:vector:starttime 0.0040846900000000011
scalar TsnLinearNetwork.server.app[1].sink packetDelayDifferenceToMean:vector:endtime 9.9959733704240019
scalar TsnLinearNetwork.server.app[1].sink packetDelayVariation:vector:count 21676
scalar TsnLinearNetwork.server.app[1].sink packetDelayVariation:vector:sum 2176.7913890610253
scalar TsnLinearNetwork.server.app[1].sink packetDelayVariation:vector:sumweights 21676
scalar TsnLinearNetwork.server.app[1].sink packetDelayVariation:vector:mean 0.10042403529530472
scalar TsnLinearNetwork.server.app[1].sink packetDelayVariation:vector:stddev 0.038877897057235392
scalar TsnLinearNetwork.server.app[1].sink packetDelayVariation:vector:min 0
scalar TsnLinearNetwork.server.app[1].sink packetDelayVariation:vector:max 0.12949323156520451
scalar TsnLinearNetwork.server.app[1].sink packetDelayVariation:vector:starttime 0.0040846900000000011
scalar TsnLinearNetwork.server.app[1].sink packetDelayVariation:vector:endtime 9.9959733704240019
scalar TsnLinearNetwork.server.app[1].io packetSent:vector(packetBytes):count 0
scalar TsnLinearNetwork.server.app[1].io packetSent:vector(packetBytes):sum 0
scalar TsnLinearNetwork.server.app[1].io packetSent:vector(packetBytes):sumweights 0
scalar TsnLinearNetwork.server.app[1].io packetSent:vector(packetBytes):mean -nan
scalar TsnLinearNetwork.server.app[1].io packetSent:vector(packetBytes):stddev nan
scalar TsnLinearNetwork.server.app[1].io packetSent:vector(packetBytes):min inf
scalar TsnLinearNetwork.server.app[1].io packetSent:vector(packetBytes):max -inf
scalar TsnLinearNetwork.server.app[1].io packetSent:vector(packetBytes):starttime nan
scalar TsnLinearNetwork.server.app[1].io packetSent:vector(packetBytes):endtime nan
scalar TsnLinearNetwork.server.app[1].io packetReceived:vector(packetBytes):count 21676
scalar TsnLinearNetwork.server.app[1].io packetReceived:vector(packetBytes):sum 21676000
scalar TsnLinearNetwork.server.app[1].io packetReceived:vector(packetBytes):sumweights 21676
scalar TsnLinearNetwork.server.app[1].io packetReceived:vector(packetBytes):mean 1000
scalar TsnLinearNetwork.server.app[1].io packetReceived:vector(packetBytes):stddev 0
scalar TsnLinearNetwork.server.app[1].io packetReceived:vector(packetBytes):min 1000
scalar TsnLinearNetwork.server.app[1].io packetReceived:vector(packetBytes):max 1000
scalar TsnLinearNetwork.server.app[1].io packetReceived:vector(packetBytes):starttime 0.0040846900000000011
scalar TsnLinearNetwork.server.app[1].io packetReceived:vector(packetBytes):endtime 9.9959733704240019

