version 3
run General-0-20250108-11:22:44-10320
attr configname General
attr datetime 20250108-11:22:44
attr datetimef 20250108-112244
attr experiment General
attr inifile omnetpp.ini
attr iterationvars ""
attr iterationvarsd ""
attr iterationvarsf ""
attr measurement ""
attr network RouterPerfNetwork
attr processid 10320
attr repetition 0
attr replication #0
attr resultdir results
attr runnumber 0
attr seedset 0
config **.param-recording false
config image-path /home/levy/workspace/inet/images
config output-scalar-file results/omnetpp.ini-General-#0.sca
config output-vector-file results/omnetpp.ini-General-#0.vec
config sim-time-limit 100s
config sim-time-limit 100s
config network RouterPerfNetwork
config total-stack 200MiB
config *.nodeNo 3
config **.sender[*].trafGen.typename IpvxTrafGen
config **.recip[*].trafGen.typename IpvxTrafSink
config **.sender[*].trafGen.startTime 0s
config **.sender[*].trafGen.sendInterval 0.1ms
config **.sender[*].trafGen.numPackets 1000
config **.sender[*].trafGen.protocol 157
config **.sender[*].trafGen.packetLength 800B
config **.sender[0].trafGen.destAddresses "\"recip[0]\""
config **.sender[1].trafGen.destAddresses "\"recip[1]\""
config **.sender[2].trafGen.destAddresses "\"recip[2]\""
config **.recip[*].trafGen.protocol 157
config **.router.ppp[*].queue.packetCapacity 300
config **.ppp[*].queue.typename DropTailQueue
config **.ppp[*].queue.packetCapacity 10

scalar RouterPerfNetwork.sender[0].lo[0].lo rcvdPkFromHl:count 0
scalar RouterPerfNetwork.sender[0].lo[0].lo rcvdPkFromHl:sum(packetBytes) 0
scalar RouterPerfNetwork.sender[0].lo[0].lo passedUpPk:count 0
scalar RouterPerfNetwork.sender[0].lo[0].lo passedUpPk:sum(packetBytes) 0
scalar RouterPerfNetwork.sender[0].lo[0] packetDropInterfaceDown:count 0
scalar RouterPerfNetwork.sender[0].lo[0] packetDropInterfaceDown:sum(packetBytes) 0
scalar RouterPerfNetwork.sender[0].lo[0] packetDropNoCarrier:count 0
scalar RouterPerfNetwork.sender[0].lo[0] packetDropNoCarrier:sum(packetBytes) 0
scalar RouterPerfNetwork.sender[0].ppp[0].queue queueLength:last 0
scalar RouterPerfNetwork.sender[0].ppp[0].queue queueLength:max 10
scalar RouterPerfNetwork.sender[0].ppp[0].queue queueLength:timeavg 0.0135
scalar RouterPerfNetwork.sender[0].ppp[0].queue queueBitLength:last 0
scalar RouterPerfNetwork.sender[0].ppp[0].queue queueBitLength:max 65600
scalar RouterPerfNetwork.sender[0].ppp[0].queue queueBitLength:timeavg 88.560000000001
scalar RouterPerfNetwork.sender[0].ppp[0].queue outgoingPackets:count 26
scalar RouterPerfNetwork.sender[0].ppp[0].queue outgoingPacketLengths:sum 170560
scalar RouterPerfNetwork.sender[0].ppp[0].queue incomingPackets:count 1000
scalar RouterPerfNetwork.sender[0].ppp[0].queue incomingPacketLengths:sum 6560000
scalar RouterPerfNetwork.sender[0].ppp[0].queue droppedPacketsQueueOverflow:count 974
scalar RouterPerfNetwork.sender[0].ppp[0].queue droppedPacketLengthsQueueOverflow:sum 6389440
scalar RouterPerfNetwork.sender[0].ppp[0].ppp transmissionState:timeavg 0.00172016
scalar RouterPerfNetwork.sender[0].ppp[0].ppp rxPkOk:count 0
scalar RouterPerfNetwork.sender[0].ppp[0].ppp rxPkOk:sum(packetBytes) 0
scalar RouterPerfNetwork.sender[0].ppp[0].ppp txPk:count 26
scalar RouterPerfNetwork.sender[0].ppp[0].ppp txPk:sum(packetBytes) 21502
scalar RouterPerfNetwork.sender[0].ppp[0].ppp rcvdPkFromHl:count 26
scalar RouterPerfNetwork.sender[0].ppp[0].ppp rcvdPkFromHl:sum(packetBytes) 21320
scalar RouterPerfNetwork.sender[0].ppp[0].ppp passedUpPk:count 0
scalar RouterPerfNetwork.sender[0].ppp[0].ppp passedUpPk:sum(packetBytes) 0
scalar RouterPerfNetwork.sender[0].ppp[0].ppp packetDropIncorrectlyReceived:count 0
scalar RouterPerfNetwork.sender[0].ppp[0].ppp packetDropIncorrectlyReceived:sum(packetBytes) 0
scalar RouterPerfNetwork.sender[0].ppp[0].ppp packetDropInterfaceDown:count 0
scalar RouterPerfNetwork.sender[0].ppp[0].ppp packetDropInterfaceDown:sum(packetBytes) 0
scalar RouterPerfNetwork.sender[0].ppp[0] packetDropInterfaceDown:count 0
scalar RouterPerfNetwork.sender[0].ppp[0] packetDropInterfaceDown:sum(packetBytes) 0
scalar RouterPerfNetwork.sender[0].ppp[0] packetDropNoCarrier:count 0
scalar RouterPerfNetwork.sender[0].ppp[0] packetDropNoCarrier:sum(packetBytes) 0
scalar RouterPerfNetwork.sender[0].ipv4.ip packetDropAddressResolutionFailed:count 0
scalar RouterPerfNetwork.sender[0].ipv4.ip packetDropAddressResolutionFailed:sum(packetBytes) 0
scalar RouterPerfNetwork.sender[0].ipv4.ip packetDropHopLimitReached:count 0
scalar RouterPerfNetwork.sender[0].ipv4.ip packetDropHopLimitReached:sum(packetBytes) 0
scalar RouterPerfNetwork.sender[0].ipv4.ip packetDropForwardingDisabled:count 0
scalar RouterPerfNetwork.sender[0].ipv4.ip packetDropForwardingDisabled:sum(packetBytes) 0
scalar RouterPerfNetwork.sender[0].ipv4.ip packetDropLifetimeExpired:count 0
scalar RouterPerfNetwork.sender[0].ipv4.ip packetDropLifetimeExpired:sum(packetBytes) 0
scalar RouterPerfNetwork.sender[0].ipv4.ip packetDropNoInterfaceFound:count 0
scalar RouterPerfNetwork.sender[0].ipv4.ip packetDropNoInterfaceFound:sum(packetBytes) 0
scalar RouterPerfNetwork.sender[0].ipv4.ip packetDropNoRouteFound:count 0
scalar RouterPerfNetwork.sender[0].ipv4.ip packetDropNoRouteFound:sum(packetBytes) 0
scalar RouterPerfNetwork.sender[0].ipv4.ip packetDropUndefined:count 0
scalar RouterPerfNetwork.sender[0].ipv4.ip packetDropUndefined:sum(packetBytes) 0
scalar RouterPerfNetwork.sender[0].ipv4.arp arpResolutionFailed:count 0
scalar RouterPerfNetwork.sender[0].ipv4.arp arpResolutionCompleted:count 0
scalar RouterPerfNetwork.sender[0].ipv4.arp arpResolutionInitiated:count 0
scalar RouterPerfNetwork.sender[0].ipv4.arp arpReplySent:count 0
scalar RouterPerfNetwork.sender[0].ipv4.arp arpReplySent:sum(packetBytes) 0
scalar RouterPerfNetwork.sender[0].ipv4.arp arpRequestSent:count 0
scalar RouterPerfNetwork.sender[0].ipv4.arp arpRequestSent:sum(packetBytes) 0
scalar RouterPerfNetwork.sender[0].trafGen packetReceived:count 0
scalar RouterPerfNetwork.sender[0].trafGen packetReceived:sum(packetBytes) 0
scalar RouterPerfNetwork.sender[0].trafGen packetSent:count 1000
scalar RouterPerfNetwork.sender[0].trafGen packetSent:sum(packetBytes) 800000
scalar RouterPerfNetwork.sender[1].lo[0].lo rcvdPkFromHl:count 0
scalar RouterPerfNetwork.sender[1].lo[0].lo rcvdPkFromHl:sum(packetBytes) 0
scalar RouterPerfNetwork.sender[1].lo[0].lo passedUpPk:count 0
scalar RouterPerfNetwork.sender[1].lo[0].lo passedUpPk:sum(packetBytes) 0
scalar RouterPerfNetwork.sender[1].lo[0] packetDropInterfaceDown:count 0
scalar RouterPerfNetwork.sender[1].lo[0] packetDropInterfaceDown:sum(packetBytes) 0
scalar RouterPerfNetwork.sender[1].lo[0] packetDropNoCarrier:count 0
scalar RouterPerfNetwork.sender[1].lo[0] packetDropNoCarrier:sum(packetBytes) 0
scalar RouterPerfNetwork.sender[1].ppp[0].queue queueLength:last 0
scalar RouterPerfNetwork.sender[1].ppp[0].queue queueLength:max 10
scalar RouterPerfNetwork.sender[1].ppp[0].queue queueLength:timeavg 0.0135
scalar RouterPerfNetwork.sender[1].ppp[0].queue queueBitLength:last 0
scalar RouterPerfNetwork.sender[1].ppp[0].queue queueBitLength:max 65600
scalar RouterPerfNetwork.sender[1].ppp[0].queue queueBitLength:timeavg 88.560000000001
scalar RouterPerfNetwork.sender[1].ppp[0].queue outgoingPackets:count 26
scalar RouterPerfNetwork.sender[1].ppp[0].queue outgoingPacketLengths:sum 170560
scalar RouterPerfNetwork.sender[1].ppp[0].queue incomingPackets:count 1000
scalar RouterPerfNetwork.sender[1].ppp[0].queue incomingPacketLengths:sum 6560000
scalar RouterPerfNetwork.sender[1].ppp[0].queue droppedPacketsQueueOverflow:count 974
scalar RouterPerfNetwork.sender[1].ppp[0].queue droppedPacketLengthsQueueOverflow:sum 6389440
scalar RouterPerfNetwork.sender[1].ppp[0].ppp transmissionState:timeavg 0.00172016
scalar RouterPerfNetwork.sender[1].ppp[0].ppp rxPkOk:count 0
scalar RouterPerfNetwork.sender[1].ppp[0].ppp rxPkOk:sum(packetBytes) 0
scalar RouterPerfNetwork.sender[1].ppp[0].ppp txPk:count 26
scalar RouterPerfNetwork.sender[1].ppp[0].ppp txPk:sum(packetBytes) 21502
scalar RouterPerfNetwork.sender[1].ppp[0].ppp rcvdPkFromHl:count 26
scalar RouterPerfNetwork.sender[1].ppp[0].ppp rcvdPkFromHl:sum(packetBytes) 21320
scalar RouterPerfNetwork.sender[1].ppp[0].ppp passedUpPk:count 0
scalar RouterPerfNetwork.sender[1].ppp[0].ppp passedUpPk:sum(packetBytes) 0
scalar RouterPerfNetwork.sender[1].ppp[0].ppp packetDropIncorrectlyReceived:count 0
scalar RouterPerfNetwork.sender[1].ppp[0].ppp packetDropIncorrectlyReceived:sum(packetBytes) 0
scalar RouterPerfNetwork.sender[1].ppp[0].ppp packetDropInterfaceDown:count 0
scalar RouterPerfNetwork.sender[1].ppp[0].ppp packetDropInterfaceDown:sum(packetBytes) 0
scalar RouterPerfNetwork.sender[1].ppp[0] packetDropInterfaceDown:count 0
scalar RouterPerfNetwork.sender[1].ppp[0] packetDropInterfaceDown:sum(packetBytes) 0
scalar RouterPerfNetwork.sender[1].ppp[0] packetDropNoCarrier:count 0
scalar RouterPerfNetwork.sender[1].ppp[0] packetDropNoCarrier:sum(packetBytes) 0
scalar RouterPerfNetwork.sender[1].ipv4.ip packetDropAddressResolutionFailed:count 0
scalar RouterPerfNetwork.sender[1].ipv4.ip packetDropAddressResolutionFailed:sum(packetBytes) 0
scalar RouterPerfNetwork.sender[1].ipv4.ip packetDropHopLimitReached:count 0
scalar RouterPerfNetwork.sender[1].ipv4.ip packetDropHopLimitReached:sum(packetBytes) 0
scalar RouterPerfNetwork.sender[1].ipv4.ip packetDropForwardingDisabled:count 0
scalar RouterPerfNetwork.sender[1].ipv4.ip packetDropForwardingDisabled:sum(packetBytes) 0
scalar RouterPerfNetwork.sender[1].ipv4.ip packetDropLifetimeExpired:count 0
scalar RouterPerfNetwork.sender[1].ipv4.ip packetDropLifetimeExpired:sum(packetBytes) 0
scalar RouterPerfNetwork.sender[1].ipv4.ip packetDropNoInterfaceFound:count 0
scalar RouterPerfNetwork.sender[1].ipv4.ip packetDropNoInterfaceFound:sum(packetBytes) 0
scalar RouterPerfNetwork.sender[1].ipv4.ip packetDropNoRouteFound:count 0
scalar RouterPerfNetwork.sender[1].ipv4.ip packetDropNoRouteFound:sum(packetBytes) 0
scalar RouterPerfNetwork.sender[1].ipv4.ip packetDropUndefined:count 0
scalar RouterPerfNetwork.sender[1].ipv4.ip packetDropUndefined:sum(packetBytes) 0
scalar RouterPerfNetwork.sender[1].ipv4.arp arpResolutionFailed:count 0
scalar RouterPerfNetwork.sender[1].ipv4.arp arpResolutionCompleted:count 0
scalar RouterPerfNetwork.sender[1].ipv4.arp arpResolutionInitiated:count 0
scalar RouterPerfNetwork.sender[1].ipv4.arp arpReplySent:count 0
scalar RouterPerfNetwork.sender[1].ipv4.arp arpReplySent:sum(packetBytes) 0
scalar RouterPerfNetwork.sender[1].ipv4.arp arpRequestSent:count 0
scalar RouterPerfNetwork.sender[1].ipv4.arp arpRequestSent:sum(packetBytes) 0
scalar RouterPerfNetwork.sender[1].trafGen packetReceived:count 0
scalar RouterPerfNetwork.sender[1].trafGen packetReceived:sum(packetBytes) 0
scalar RouterPerfNetwork.sender[1].trafGen packetSent:count 1000
scalar RouterPerfNetwork.sender[1].trafGen packetSent:sum(packetBytes) 800000
scalar RouterPerfNetwork.sender[2].lo[0].lo rcvdPkFromHl:count 0
scalar RouterPerfNetwork.sender[2].lo[0].lo rcvdPkFromHl:sum(packetBytes) 0
scalar RouterPerfNetwork.sender[2].lo[0].lo passedUpPk:count 0
scalar RouterPerfNetwork.sender[2].lo[0].lo passedUpPk:sum(packetBytes) 0
scalar RouterPerfNetwork.sender[2].lo[0] packetDropInterfaceDown:count 0
scalar RouterPerfNetwork.sender[2].lo[0] packetDropInterfaceDown:sum(packetBytes) 0
scalar RouterPerfNetwork.sender[2].lo[0] packetDropNoCarrier:count 0
scalar RouterPerfNetwork.sender[2].lo[0] packetDropNoCarrier:sum(packetBytes) 0
scalar RouterPerfNetwork.sender[2].ppp[0].queue queueLength:last 0
scalar RouterPerfNetwork.sender[2].ppp[0].queue queueLength:max 10
scalar RouterPerfNetwork.sender[2].ppp[0].queue queueLength:timeavg 0.0135
scalar RouterPerfNetwork.sender[2].ppp[0].queue queueBitLength:last 0
scalar RouterPerfNetwork.sender[2].ppp[0].queue queueBitLength:max 65600
scalar RouterPerfNetwork.sender[2].ppp[0].queue queueBitLength:timeavg 88.560000000001
scalar RouterPerfNetwork.sender[2].ppp[0].queue outgoingPackets:count 26
scalar RouterPerfNetwork.sender[2].ppp[0].queue outgoingPacketLengths:sum 170560
scalar RouterPerfNetwork.sender[2].ppp[0].queue incomingPackets:count 1000
scalar RouterPerfNetwork.sender[2].ppp[0].queue incomingPacketLengths:sum 6560000
scalar RouterPerfNetwork.sender[2].ppp[0].queue droppedPacketsQueueOverflow:count 974
scalar RouterPerfNetwork.sender[2].ppp[0].queue droppedPacketLengthsQueueOverflow:sum 6389440
scalar RouterPerfNetwork.sender[2].ppp[0].ppp transmissionState:timeavg 0.00172016
scalar RouterPerfNetwork.sender[2].ppp[0].ppp rxPkOk:count 0
scalar RouterPerfNetwork.sender[2].ppp[0].ppp rxPkOk:sum(packetBytes) 0
scalar RouterPerfNetwork.sender[2].ppp[0].ppp txPk:count 26
scalar RouterPerfNetwork.sender[2].ppp[0].ppp txPk:sum(packetBytes) 21502
scalar RouterPerfNetwork.sender[2].ppp[0].ppp rcvdPkFromHl:count 26
scalar RouterPerfNetwork.sender[2].ppp[0].ppp rcvdPkFromHl:sum(packetBytes) 21320
scalar RouterPerfNetwork.sender[2].ppp[0].ppp passedUpPk:count 0
scalar RouterPerfNetwork.sender[2].ppp[0].ppp passedUpPk:sum(packetBytes) 0
scalar RouterPerfNetwork.sender[2].ppp[0].ppp packetDropIncorrectlyReceived:count 0
scalar RouterPerfNetwork.sender[2].ppp[0].ppp packetDropIncorrectlyReceived:sum(packetBytes) 0
scalar RouterPerfNetwork.sender[2].ppp[0].ppp packetDropInterfaceDown:count 0
scalar RouterPerfNetwork.sender[2].ppp[0].ppp packetDropInterfaceDown:sum(packetBytes) 0
scalar RouterPerfNetwork.sender[2].ppp[0] packetDropInterfaceDown:count 0
scalar RouterPerfNetwork.sender[2].ppp[0] packetDropInterfaceDown:sum(packetBytes) 0
scalar RouterPerfNetwork.sender[2].ppp[0] packetDropNoCarrier:count 0
scalar RouterPerfNetwork.sender[2].ppp[0] packetDropNoCarrier:sum(packetBytes) 0
scalar RouterPerfNetwork.sender[2].ipv4.ip packetDropAddressResolutionFailed:count 0
scalar RouterPerfNetwork.sender[2].ipv4.ip packetDropAddressResolutionFailed:sum(packetBytes) 0
scalar RouterPerfNetwork.sender[2].ipv4.ip packetDropHopLimitReached:count 0
scalar RouterPerfNetwork.sender[2].ipv4.ip packetDropHopLimitReached:sum(packetBytes) 0
scalar RouterPerfNetwork.sender[2].ipv4.ip packetDropForwardingDisabled:count 0
scalar RouterPerfNetwork.sender[2].ipv4.ip packetDropForwardingDisabled:sum(packetBytes) 0
scalar RouterPerfNetwork.sender[2].ipv4.ip packetDropLifetimeExpired:count 0
scalar RouterPerfNetwork.sender[2].ipv4.ip packetDropLifetimeExpired:sum(packetBytes) 0
scalar RouterPerfNetwork.sender[2].ipv4.ip packetDropNoInterfaceFound:count 0
scalar RouterPerfNetwork.sender[2].ipv4.ip packetDropNoInterfaceFound:sum(packetBytes) 0
scalar RouterPerfNetwork.sender[2].ipv4.ip packetDropNoRouteFound:count 0
scalar RouterPerfNetwork.sender[2].ipv4.ip packetDropNoRouteFound:sum(packetBytes) 0
scalar RouterPerfNetwork.sender[2].ipv4.ip packetDropUndefined:count 0
scalar RouterPerfNetwork.sender[2].ipv4.ip packetDropUndefined:sum(packetBytes) 0
scalar RouterPerfNetwork.sender[2].ipv4.arp arpResolutionFailed:count 0
scalar RouterPerfNetwork.sender[2].ipv4.arp arpResolutionCompleted:count 0
scalar RouterPerfNetwork.sender[2].ipv4.arp arpResolutionInitiated:count 0
scalar RouterPerfNetwork.sender[2].ipv4.arp arpReplySent:count 0
scalar RouterPerfNetwork.sender[2].ipv4.arp arpReplySent:sum(packetBytes) 0
scalar RouterPerfNetwork.sender[2].ipv4.arp arpRequestSent:count 0
scalar RouterPerfNetwork.sender[2].ipv4.arp arpRequestSent:sum(packetBytes) 0
scalar RouterPerfNetwork.sender[2].trafGen packetReceived:count 0
scalar RouterPerfNetwork.sender[2].trafGen packetReceived:sum(packetBytes) 0
scalar RouterPerfNetwork.sender[2].trafGen packetSent:count 1000
scalar RouterPerfNetwork.sender[2].trafGen packetSent:sum(packetBytes) 800000
scalar RouterPerfNetwork.recip[0].lo[0].lo rcvdPkFromHl:count 0
scalar RouterPerfNetwork.recip[0].lo[0].lo rcvdPkFromHl:sum(packetBytes) 0
scalar RouterPerfNetwork.recip[0].lo[0].lo passedUpPk:count 0
scalar RouterPerfNetwork.recip[0].lo[0].lo passedUpPk:sum(packetBytes) 0
scalar RouterPerfNetwork.recip[0].lo[0] packetDropInterfaceDown:count 0
scalar RouterPerfNetwork.recip[0].lo[0] packetDropInterfaceDown:sum(packetBytes) 0
scalar RouterPerfNetwork.recip[0].lo[0] packetDropNoCarrier:count 0
scalar RouterPerfNetwork.recip[0].lo[0] packetDropNoCarrier:sum(packetBytes) 0
scalar RouterPerfNetwork.recip[0].ppp[0].queue queueLength:last 0
scalar RouterPerfNetwork.recip[0].ppp[0].queue queueLength:max 0
scalar RouterPerfNetwork.recip[0].ppp[0].queue queueLength:timeavg 0
scalar RouterPerfNetwork.recip[0].ppp[0].queue queueBitLength:last 0
scalar RouterPerfNetwork.recip[0].ppp[0].queue queueBitLength:max 0
scalar RouterPerfNetwork.recip[0].ppp[0].queue queueBitLength:timeavg 0
scalar RouterPerfNetwork.recip[0].ppp[0].queue outgoingPackets:count 0
scalar RouterPerfNetwork.recip[0].ppp[0].queue outgoingPacketLengths:sum 0
scalar RouterPerfNetwork.recip[0].ppp[0].queue incomingPackets:count 0
scalar RouterPerfNetwork.recip[0].ppp[0].queue incomingPacketLengths:sum 0
scalar RouterPerfNetwork.recip[0].ppp[0].queue droppedPacketsQueueOverflow:count 0
scalar RouterPerfNetwork.recip[0].ppp[0].queue droppedPacketLengthsQueueOverflow:sum 0
scalar RouterPerfNetwork.recip[0].ppp[0].ppp transmissionState:timeavg 0
scalar RouterPerfNetwork.recip[0].ppp[0].ppp rxPkOk:count 26
scalar RouterPerfNetwork.recip[0].ppp[0].ppp rxPkOk:sum(packetBytes) 21502
scalar RouterPerfNetwork.recip[0].ppp[0].ppp txPk:count 0
scalar RouterPerfNetwork.recip[0].ppp[0].ppp txPk:sum(packetBytes) 0
scalar RouterPerfNetwork.recip[0].ppp[0].ppp rcvdPkFromHl:count 0
scalar RouterPerfNetwork.recip[0].ppp[0].ppp rcvdPkFromHl:sum(packetBytes) 0
scalar RouterPerfNetwork.recip[0].ppp[0].ppp passedUpPk:count 26
scalar RouterPerfNetwork.recip[0].ppp[0].ppp passedUpPk:sum(packetBytes) 21320
scalar RouterPerfNetwork.recip[0].ppp[0].ppp packetDropIncorrectlyReceived:count 0
scalar RouterPerfNetwork.recip[0].ppp[0].ppp packetDropIncorrectlyReceived:sum(packetBytes) 0
scalar RouterPerfNetwork.recip[0].ppp[0].ppp packetDropInterfaceDown:count 0
scalar RouterPerfNetwork.recip[0].ppp[0].ppp packetDropInterfaceDown:sum(packetBytes) 0
scalar RouterPerfNetwork.recip[0].ppp[0] packetDropInterfaceDown:count 0
scalar RouterPerfNetwork.recip[0].ppp[0] packetDropInterfaceDown:sum(packetBytes) 0
scalar RouterPerfNetwork.recip[0].ppp[0] packetDropNoCarrier:count 0
scalar RouterPerfNetwork.recip[0].ppp[0] packetDropNoCarrier:sum(packetBytes) 0
scalar RouterPerfNetwork.recip[0].ipv4.ip packetDropAddressResolutionFailed:count 0
scalar RouterPerfNetwork.recip[0].ipv4.ip packetDropAddressResolutionFailed:sum(packetBytes) 0
scalar RouterPerfNetwork.recip[0].ipv4.ip packetDropHopLimitReached:count 0
scalar RouterPerfNetwork.recip[0].ipv4.ip packetDropHopLimitReached:sum(packetBytes) 0
scalar RouterPerfNetwork.recip[0].ipv4.ip packetDropForwardingDisabled:count 0
scalar RouterPerfNetwork.recip[0].ipv4.ip packetDropForwardingDisabled:sum(packetBytes) 0
scalar RouterPerfNetwork.recip[0].ipv4.ip packetDropLifetimeExpired:count 0
scalar RouterPerfNetwork.recip[0].ipv4.ip packetDropLifetimeExpired:sum(packetBytes) 0
scalar RouterPerfNetwork.recip[0].ipv4.ip packetDropNoInterfaceFound:count 0
scalar RouterPerfNetwork.recip[0].ipv4.ip packetDropNoInterfaceFound:sum(packetBytes) 0
scalar RouterPerfNetwork.recip[0].ipv4.ip packetDropNoRouteFound:count 0
scalar RouterPerfNetwork.recip[0].ipv4.ip packetDropNoRouteFound:sum(packetBytes) 0
scalar RouterPerfNetwork.recip[0].ipv4.ip packetDropUndefined:count 0
scalar RouterPerfNetwork.recip[0].ipv4.ip packetDropUndefined:sum(packetBytes) 0
scalar RouterPerfNetwork.recip[0].ipv4.arp arpResolutionFailed:count 0
scalar RouterPerfNetwork.recip[0].ipv4.arp arpResolutionCompleted:count 0
scalar RouterPerfNetwork.recip[0].ipv4.arp arpResolutionInitiated:count 0
scalar RouterPerfNetwork.recip[0].ipv4.arp arpReplySent:count 0
scalar RouterPerfNetwork.recip[0].ipv4.arp arpReplySent:sum(packetBytes) 0
scalar RouterPerfNetwork.recip[0].ipv4.arp arpRequestSent:count 0
scalar RouterPerfNetwork.recip[0].ipv4.arp arpRequestSent:sum(packetBytes) 0
scalar RouterPerfNetwork.recip[0].trafGen packetReceived:count 26
scalar RouterPerfNetwork.recip[0].trafGen packetReceived:sum(packetBytes) 20800
scalar RouterPerfNetwork.recip[1].lo[0].lo rcvdPkFromHl:count 0
scalar RouterPerfNetwork.recip[1].lo[0].lo rcvdPkFromHl:sum(packetBytes) 0
scalar RouterPerfNetwork.recip[1].lo[0].lo passedUpPk:count 0
scalar RouterPerfNetwork.recip[1].lo[0].lo passedUpPk:sum(packetBytes) 0
scalar RouterPerfNetwork.recip[1].lo[0] packetDropInterfaceDown:count 0
scalar RouterPerfNetwork.recip[1].lo[0] packetDropInterfaceDown:sum(packetBytes) 0
scalar RouterPerfNetwork.recip[1].lo[0] packetDropNoCarrier:count 0
scalar RouterPerfNetwork.recip[1].lo[0] packetDropNoCarrier:sum(packetBytes) 0
scalar RouterPerfNetwork.recip[1].ppp[0].queue queueLength:last 0
scalar RouterPerfNetwork.recip[1].ppp[0].queue queueLength:max 0
scalar RouterPerfNetwork.recip[1].ppp[0].queue queueLength:timeavg 0
scalar RouterPerfNetwork.recip[1].ppp[0].queue queueBitLength:last 0
scalar RouterPerfNetwork.recip[1].ppp[0].queue queueBitLength:max 0
scalar RouterPerfNetwork.recip[1].ppp[0].queue queueBitLength:timeavg 0
scalar RouterPerfNetwork.recip[1].ppp[0].queue outgoingPackets:count 0
scalar RouterPerfNetwork.recip[1].ppp[0].queue outgoingPacketLengths:sum 0
scalar RouterPerfNetwork.recip[1].ppp[0].queue incomingPackets:count 0
scalar RouterPerfNetwork.recip[1].ppp[0].queue incomingPacketLengths:sum 0
scalar RouterPerfNetwork.recip[1].ppp[0].queue droppedPacketsQueueOverflow:count 0
scalar RouterPerfNetwork.recip[1].ppp[0].queue droppedPacketLengthsQueueOverflow:sum 0
scalar RouterPerfNetwork.recip[1].ppp[0].ppp transmissionState:timeavg 0
scalar RouterPerfNetwork.recip[1].ppp[0].ppp rxPkOk:count 26
scalar RouterPerfNetwork.recip[1].ppp[0].ppp rxPkOk:sum(packetBytes) 21502
scalar RouterPerfNetwork.recip[1].ppp[0].ppp txPk:count 0
scalar RouterPerfNetwork.recip[1].ppp[0].ppp txPk:sum(packetBytes) 0
scalar RouterPerfNetwork.recip[1].ppp[0].ppp rcvdPkFromHl:count 0
scalar RouterPerfNetwork.recip[1].ppp[0].ppp rcvdPkFromHl:sum(packetBytes) 0
scalar RouterPerfNetwork.recip[1].ppp[0].ppp passedUpPk:count 26
scalar RouterPerfNetwork.recip[1].ppp[0].ppp passedUpPk:sum(packetBytes) 21320
scalar RouterPerfNetwork.recip[1].ppp[0].ppp packetDropIncorrectlyReceived:count 0
scalar RouterPerfNetwork.recip[1].ppp[0].ppp packetDropIncorrectlyReceived:sum(packetBytes) 0
scalar RouterPerfNetwork.recip[1].ppp[0].ppp packetDropInterfaceDown:count 0
scalar RouterPerfNetwork.recip[1].ppp[0].ppp packetDropInterfaceDown:sum(packetBytes) 0
scalar RouterPerfNetwork.recip[1].ppp[0] packetDropInterfaceDown:count 0
scalar RouterPerfNetwork.recip[1].ppp[0] packetDropInterfaceDown:sum(packetBytes) 0
scalar RouterPerfNetwork.recip[1].ppp[0] packetDropNoCarrier:count 0
scalar RouterPerfNetwork.recip[1].ppp[0] packetDropNoCarrier:sum(packetBytes) 0
scalar RouterPerfNetwork.recip[1].ipv4.ip packetDropAddressResolutionFailed:count 0
scalar RouterPerfNetwork.recip[1].ipv4.ip packetDropAddressResolutionFailed:sum(packetBytes) 0
scalar RouterPerfNetwork.recip[1].ipv4.ip packetDropHopLimitReached:count 0
scalar RouterPerfNetwork.recip[1].ipv4.ip packetDropHopLimitReached:sum(packetBytes) 0
scalar RouterPerfNetwork.recip[1].ipv4.ip packetDropForwardingDisabled:count 0
scalar RouterPerfNetwork.recip[1].ipv4.ip packetDropForwardingDisabled:sum(packetBytes) 0
scalar RouterPerfNetwork.recip[1].ipv4.ip packetDropLifetimeExpired:count 0
scalar RouterPerfNetwork.recip[1].ipv4.ip packetDropLifetimeExpired:sum(packetBytes) 0
scalar RouterPerfNetwork.recip[1].ipv4.ip packetDropNoInterfaceFound:count 0
scalar RouterPerfNetwork.recip[1].ipv4.ip packetDropNoInterfaceFound:sum(packetBytes) 0
scalar RouterPerfNetwork.recip[1].ipv4.ip packetDropNoRouteFound:count 0
scalar RouterPerfNetwork.recip[1].ipv4.ip packetDropNoRouteFound:sum(packetBytes) 0
scalar RouterPerfNetwork.recip[1].ipv4.ip packetDropUndefined:count 0
scalar RouterPerfNetwork.recip[1].ipv4.ip packetDropUndefined:sum(packetBytes) 0
scalar RouterPerfNetwork.recip[1].ipv4.arp arpResolutionFailed:count 0
scalar RouterPerfNetwork.recip[1].ipv4.arp arpResolutionCompleted:count 0
scalar RouterPerfNetwork.recip[1].ipv4.arp arpResolutionInitiated:count 0
scalar RouterPerfNetwork.recip[1].ipv4.arp arpReplySent:count 0
scalar RouterPerfNetwork.recip[1].ipv4.arp arpReplySent:sum(packetBytes) 0
scalar RouterPerfNetwork.recip[1].ipv4.arp arpRequestSent:count 0
scalar RouterPerfNetwork.recip[1].ipv4.arp arpRequestSent:sum(packetBytes) 0
scalar RouterPerfNetwork.recip[1].trafGen packetReceived:count 26
scalar RouterPerfNetwork.recip[1].trafGen packetReceived:sum(packetBytes) 20800
scalar RouterPerfNetwork.recip[2].lo[0].lo rcvdPkFromHl:count 0
scalar RouterPerfNetwork.recip[2].lo[0].lo rcvdPkFromHl:sum(packetBytes) 0
scalar RouterPerfNetwork.recip[2].lo[0].lo passedUpPk:count 0
scalar RouterPerfNetwork.recip[2].lo[0].lo passedUpPk:sum(packetBytes) 0
scalar RouterPerfNetwork.recip[2].lo[0] packetDropInterfaceDown:count 0
scalar RouterPerfNetwork.recip[2].lo[0] packetDropInterfaceDown:sum(packetBytes) 0
scalar RouterPerfNetwork.recip[2].lo[0] packetDropNoCarrier:count 0
scalar RouterPerfNetwork.recip[2].lo[0] packetDropNoCarrier:sum(packetBytes) 0
scalar RouterPerfNetwork.recip[2].ppp[0].queue queueLength:last 0
scalar RouterPerfNetwork.recip[2].ppp[0].queue queueLength:max 0
scalar RouterPerfNetwork.recip[2].ppp[0].queue queueLength:timeavg 0
scalar RouterPerfNetwork.recip[2].ppp[0].queue queueBitLength:last 0
scalar RouterPerfNetwork.recip[2].ppp[0].queue queueBitLength:max 0
scalar RouterPerfNetwork.recip[2].ppp[0].queue queueBitLength:timeavg 0
scalar RouterPerfNetwork.recip[2].ppp[0].queue outgoingPackets:count 0
scalar RouterPerfNetwork.recip[2].ppp[0].queue outgoingPacketLengths:sum 0
scalar RouterPerfNetwork.recip[2].ppp[0].queue incomingPackets:count 0
scalar RouterPerfNetwork.recip[2].ppp[0].queue incomingPacketLengths:sum 0
scalar RouterPerfNetwork.recip[2].ppp[0].queue droppedPacketsQueueOverflow:count 0
scalar RouterPerfNetwork.recip[2].ppp[0].queue droppedPacketLengthsQueueOverflow:sum 0
scalar RouterPerfNetwork.recip[2].ppp[0].ppp transmissionState:timeavg 0
scalar RouterPerfNetwork.recip[2].ppp[0].ppp rxPkOk:count 26
scalar RouterPerfNetwork.recip[2].ppp[0].ppp rxPkOk:sum(packetBytes) 21502
scalar RouterPerfNetwork.recip[2].ppp[0].ppp txPk:count 0
scalar RouterPerfNetwork.recip[2].ppp[0].ppp txPk:sum(packetBytes) 0
scalar RouterPerfNetwork.recip[2].ppp[0].ppp rcvdPkFromHl:count 0
scalar RouterPerfNetwork.recip[2].ppp[0].ppp rcvdPkFromHl:sum(packetBytes) 0
scalar RouterPerfNetwork.recip[2].ppp[0].ppp passedUpPk:count 26
scalar RouterPerfNetwork.recip[2].ppp[0].ppp passedUpPk:sum(packetBytes) 21320
scalar RouterPerfNetwork.recip[2].ppp[0].ppp packetDropIncorrectlyReceived:count 0
scalar RouterPerfNetwork.recip[2].ppp[0].ppp packetDropIncorrectlyReceived:sum(packetBytes) 0
scalar RouterPerfNetwork.recip[2].ppp[0].ppp packetDropInterfaceDown:count 0
scalar RouterPerfNetwork.recip[2].ppp[0].ppp packetDropInterfaceDown:sum(packetBytes) 0
scalar RouterPerfNetwork.recip[2].ppp[0] packetDropInterfaceDown:count 0
scalar RouterPerfNetwork.recip[2].ppp[0] packetDropInterfaceDown:sum(packetBytes) 0
scalar RouterPerfNetwork.recip[2].ppp[0] packetDropNoCarrier:count 0
scalar RouterPerfNetwork.recip[2].ppp[0] packetDropNoCarrier:sum(packetBytes) 0
scalar RouterPerfNetwork.recip[2].ipv4.ip packetDropAddressResolutionFailed:count 0
scalar RouterPerfNetwork.recip[2].ipv4.ip packetDropAddressResolutionFailed:sum(packetBytes) 0
scalar RouterPerfNetwork.recip[2].ipv4.ip packetDropHopLimitReached:count 0
scalar RouterPerfNetwork.recip[2].ipv4.ip packetDropHopLimitReached:sum(packetBytes) 0
scalar RouterPerfNetwork.recip[2].ipv4.ip packetDropForwardingDisabled:count 0
scalar RouterPerfNetwork.recip[2].ipv4.ip packetDropForwardingDisabled:sum(packetBytes) 0
scalar RouterPerfNetwork.recip[2].ipv4.ip packetDropLifetimeExpired:count 0
scalar RouterPerfNetwork.recip[2].ipv4.ip packetDropLifetimeExpired:sum(packetBytes) 0
scalar RouterPerfNetwork.recip[2].ipv4.ip packetDropNoInterfaceFound:count 0
scalar RouterPerfNetwork.recip[2].ipv4.ip packetDropNoInterfaceFound:sum(packetBytes) 0
scalar RouterPerfNetwork.recip[2].ipv4.ip packetDropNoRouteFound:count 0
scalar RouterPerfNetwork.recip[2].ipv4.ip packetDropNoRouteFound:sum(packetBytes) 0
scalar RouterPerfNetwork.recip[2].ipv4.ip packetDropUndefined:count 0
scalar RouterPerfNetwork.recip[2].ipv4.ip packetDropUndefined:sum(packetBytes) 0
scalar RouterPerfNetwork.recip[2].ipv4.arp arpResolutionFailed:count 0
scalar RouterPerfNetwork.recip[2].ipv4.arp arpResolutionCompleted:count 0
scalar RouterPerfNetwork.recip[2].ipv4.arp arpResolutionInitiated:count 0
scalar RouterPerfNetwork.recip[2].ipv4.arp arpReplySent:count 0
scalar RouterPerfNetwork.recip[2].ipv4.arp arpReplySent:sum(packetBytes) 0
scalar RouterPerfNetwork.recip[2].ipv4.arp arpRequestSent:count 0
scalar RouterPerfNetwork.recip[2].ipv4.arp arpRequestSent:sum(packetBytes) 0
scalar RouterPerfNetwork.recip[2].trafGen packetReceived:count 26
scalar RouterPerfNetwork.recip[2].trafGen packetReceived:sum(packetBytes) 20800
scalar RouterPerfNetwork.router.lo[0].lo rcvdPkFromHl:count 0
scalar RouterPerfNetwork.router.lo[0].lo rcvdPkFromHl:sum(packetBytes) 0
scalar RouterPerfNetwork.router.lo[0].lo passedUpPk:count 0
scalar RouterPerfNetwork.router.lo[0].lo passedUpPk:sum(packetBytes) 0
scalar RouterPerfNetwork.router.lo[0] packetDropInterfaceDown:count 0
scalar RouterPerfNetwork.router.lo[0] packetDropInterfaceDown:sum(packetBytes) 0
scalar RouterPerfNetwork.router.lo[0] packetDropNoCarrier:count 0
scalar RouterPerfNetwork.router.lo[0] packetDropNoCarrier:sum(packetBytes) 0
scalar RouterPerfNetwork.router.ppp[0].queue queueLength:last 0
scalar RouterPerfNetwork.router.ppp[0].queue queueLength:max 0
scalar RouterPerfNetwork.router.ppp[0].queue queueLength:timeavg 0
scalar RouterPerfNetwork.router.ppp[0].queue queueBitLength:last 0
scalar RouterPerfNetwork.router.ppp[0].queue queueBitLength:max 0
scalar RouterPerfNetwork.router.ppp[0].queue queueBitLength:timeavg 0
scalar RouterPerfNetwork.router.ppp[0].queue outgoingPackets:count 0
scalar RouterPerfNetwork.router.ppp[0].queue outgoingPacketLengths:sum 0
scalar RouterPerfNetwork.router.ppp[0].queue incomingPackets:count 0
scalar RouterPerfNetwork.router.ppp[0].queue incomingPacketLengths:sum 0
scalar RouterPerfNetwork.router.ppp[0].queue droppedPacketsQueueOverflow:count 0
scalar RouterPerfNetwork.router.ppp[0].queue droppedPacketLengthsQueueOverflow:sum 0
scalar RouterPerfNetwork.router.ppp[0].ppp transmissionState:timeavg 0
scalar RouterPerfNetwork.router.ppp[0].ppp rxPkOk:count 26
scalar RouterPerfNetwork.router.ppp[0].ppp rxPkOk:sum(packetBytes) 21502
scalar RouterPerfNetwork.router.ppp[0].ppp txPk:count 0
scalar RouterPerfNetwork.router.ppp[0].ppp txPk:sum(packetBytes) 0
scalar RouterPerfNetwork.router.ppp[0].ppp rcvdPkFromHl:count 0
scalar RouterPerfNetwork.router.ppp[0].ppp rcvdPkFromHl:sum(packetBytes) 0
scalar RouterPerfNetwork.router.ppp[0].ppp passedUpPk:count 26
scalar RouterPerfNetwork.router.ppp[0].ppp passedUpPk:sum(packetBytes) 21320
scalar RouterPerfNetwork.router.ppp[0].ppp packetDropIncorrectlyReceived:count 0
scalar RouterPerfNetwork.router.ppp[0].ppp packetDropIncorrectlyReceived:sum(packetBytes) 0
scalar RouterPerfNetwork.router.ppp[0].ppp packetDropInterfaceDown:count 0
scalar RouterPerfNetwork.router.ppp[0].ppp packetDropInterfaceDown:sum(packetBytes) 0
scalar RouterPerfNetwork.router.ppp[0] packetDropInterfaceDown:count 0
scalar RouterPerfNetwork.router.ppp[0] packetDropInterfaceDown:sum(packetBytes) 0
scalar RouterPerfNetwork.router.ppp[0] packetDropNoCarrier:count 0
scalar RouterPerfNetwork.router.ppp[0] packetDropNoCarrier:sum(packetBytes) 0
scalar RouterPerfNetwork.router.ppp[1].queue queueLength:last 0
scalar RouterPerfNetwork.router.ppp[1].queue queueLength:max 0
scalar RouterPerfNetwork.router.ppp[1].queue queueLength:timeavg 0
scalar RouterPerfNetwork.router.ppp[1].queue queueBitLength:last 0
scalar RouterPerfNetwork.router.ppp[1].queue queueBitLength:max 0
scalar RouterPerfNetwork.router.ppp[1].queue queueBitLength:timeavg 0
scalar RouterPerfNetwork.router.ppp[1].queue outgoingPackets:count 26
scalar RouterPerfNetwork.router.ppp[1].queue outgoingPacketLengths:sum 170560
scalar RouterPerfNetwork.router.ppp[1].queue incomingPackets:count 26
scalar RouterPerfNetwork.router.ppp[1].queue incomingPacketLengths:sum 170560
scalar RouterPerfNetwork.router.ppp[1].queue droppedPacketsQueueOverflow:count 0
scalar RouterPerfNetwork.router.ppp[1].queue droppedPacketLengthsQueueOverflow:sum 0
scalar RouterPerfNetwork.router.ppp[1].ppp transmissionState:timeavg 0.00172016
scalar RouterPerfNetwork.router.ppp[1].ppp rxPkOk:count 0
scalar RouterPerfNetwork.router.ppp[1].ppp rxPkOk:sum(packetBytes) 0
scalar RouterPerfNetwork.router.ppp[1].ppp txPk:count 26
scalar RouterPerfNetwork.router.ppp[1].ppp txPk:sum(packetBytes) 21502
scalar RouterPerfNetwork.router.ppp[1].ppp rcvdPkFromHl:count 26
scalar RouterPerfNetwork.router.ppp[1].ppp rcvdPkFromHl:sum(packetBytes) 21320
scalar RouterPerfNetwork.router.ppp[1].ppp passedUpPk:count 0
scalar RouterPerfNetwork.router.ppp[1].ppp passedUpPk:sum(packetBytes) 0
scalar RouterPerfNetwork.router.ppp[1].ppp packetDropIncorrectlyReceived:count 0
scalar RouterPerfNetwork.router.ppp[1].ppp packetDropIncorrectlyReceived:sum(packetBytes) 0
scalar RouterPerfNetwork.router.ppp[1].ppp packetDropInterfaceDown:count 0
scalar RouterPerfNetwork.router.ppp[1].ppp packetDropInterfaceDown:sum(packetBytes) 0
scalar RouterPerfNetwork.router.ppp[1] packetDropInterfaceDown:count 0
scalar RouterPerfNetwork.router.ppp[1] packetDropInterfaceDown:sum(packetBytes) 0
scalar RouterPerfNetwork.router.ppp[1] packetDropNoCarrier:count 0
scalar RouterPerfNetwork.router.ppp[1] packetDropNoCarrier:sum(packetBytes) 0
scalar RouterPerfNetwork.router.ppp[2].queue queueLength:last 0
scalar RouterPerfNetwork.router.ppp[2].queue queueLength:max 0
scalar RouterPerfNetwork.router.ppp[2].queue queueLength:timeavg 0
scalar RouterPerfNetwork.router.ppp[2].queue queueBitLength:last 0
scalar RouterPerfNetwork.router.ppp[2].queue queueBitLength:max 0
scalar RouterPerfNetwork.router.ppp[2].queue queueBitLength:timeavg 0
scalar RouterPerfNetwork.router.ppp[2].queue outgoingPackets:count 0
scalar RouterPerfNetwork.router.ppp[2].queue outgoingPacketLengths:sum 0
scalar RouterPerfNetwork.router.ppp[2].queue incomingPackets:count 0
scalar RouterPerfNetwork.router.ppp[2].queue incomingPacketLengths:sum 0
scalar RouterPerfNetwork.router.ppp[2].queue droppedPacketsQueueOverflow:count 0
scalar RouterPerfNetwork.router.ppp[2].queue droppedPacketLengthsQueueOverflow:sum 0
scalar RouterPerfNetwork.router.ppp[2].ppp transmissionState:timeavg 0
scalar RouterPerfNetwork.router.ppp[2].ppp rxPkOk:count 26
scalar RouterPerfNetwork.router.ppp[2].ppp rxPkOk:sum(packetBytes) 21502
scalar RouterPerfNetwork.router.ppp[2].ppp txPk:count 0
scalar RouterPerfNetwork.router.ppp[2].ppp txPk:sum(packetBytes) 0
scalar RouterPerfNetwork.router.ppp[2].ppp rcvdPkFromHl:count 0
scalar RouterPerfNetwork.router.ppp[2].ppp rcvdPkFromHl:sum(packetBytes) 0
scalar RouterPerfNetwork.router.ppp[2].ppp passedUpPk:count 26
scalar RouterPerfNetwork.router.ppp[2].ppp passedUpPk:sum(packetBytes) 21320
scalar RouterPerfNetwork.router.ppp[2].ppp packetDropIncorrectlyReceived:count 0
scalar RouterPerfNetwork.router.ppp[2].ppp packetDropIncorrectlyReceived:sum(packetBytes) 0
scalar RouterPerfNetwork.router.ppp[2].ppp packetDropInterfaceDown:count 0
scalar RouterPerfNetwork.router.ppp[2].ppp packetDropInterfaceDown:sum(packetBytes) 0
scalar RouterPerfNetwork.router.ppp[2] packetDropInterfaceDown:count 0
scalar RouterPerfNetwork.router.ppp[2] packetDropInterfaceDown:sum(packetBytes) 0
scalar RouterPerfNetwork.router.ppp[2] packetDropNoCarrier:count 0
scalar RouterPerfNetwork.router.ppp[2] packetDropNoCarrier:sum(packetBytes) 0
scalar RouterPerfNetwork.router.ppp[3].queue queueLength:last 0
scalar RouterPerfNetwork.router.ppp[3].queue queueLength:max 0
scalar RouterPerfNetwork.router.ppp[3].queue queueLength:timeavg 0
scalar RouterPerfNetwork.router.ppp[3].queue queueBitLength:last 0
scalar RouterPerfNetwork.router.ppp[3].queue queueBitLength:max 0
scalar RouterPerfNetwork.router.ppp[3].queue queueBitLength:timeavg 0
scalar RouterPerfNetwork.router.ppp[3].queue outgoingPackets:count 26
scalar RouterPerfNetwork.router.ppp[3].queue outgoingPacketLengths:sum 170560
scalar RouterPerfNetwork.router.ppp[3].queue incomingPackets:count 26
scalar RouterPerfNetwork.router.ppp[3].queue incomingPacketLengths:sum 170560
scalar RouterPerfNetwork.router.ppp[3].queue droppedPacketsQueueOverflow:count 0
scalar RouterPerfNetwork.router.ppp[3].queue droppedPacketLengthsQueueOverflow:sum 0
scalar RouterPerfNetwork.router.ppp[3].ppp transmissionState:timeavg 0.00172016
scalar RouterPerfNetwork.router.ppp[3].ppp rxPkOk:count 0
scalar RouterPerfNetwork.router.ppp[3].ppp rxPkOk:sum(packetBytes) 0
scalar RouterPerfNetwork.router.ppp[3].ppp txPk:count 26
scalar RouterPerfNetwork.router.ppp[3].ppp txPk:sum(packetBytes) 21502
scalar RouterPerfNetwork.router.ppp[3].ppp rcvdPkFromHl:count 26
scalar RouterPerfNetwork.router.ppp[3].ppp rcvdPkFromHl:sum(packetBytes) 21320
scalar RouterPerfNetwork.router.ppp[3].ppp passedUpPk:count 0
scalar RouterPerfNetwork.router.ppp[3].ppp passedUpPk:sum(packetBytes) 0
scalar RouterPerfNetwork.router.ppp[3].ppp packetDropIncorrectlyReceived:count 0
scalar RouterPerfNetwork.router.ppp[3].ppp packetDropIncorrectlyReceived:sum(packetBytes) 0
scalar RouterPerfNetwork.router.ppp[3].ppp packetDropInterfaceDown:count 0
scalar RouterPerfNetwork.router.ppp[3].ppp packetDropInterfaceDown:sum(packetBytes) 0
scalar RouterPerfNetwork.router.ppp[3] packetDropInterfaceDown:count 0
scalar RouterPerfNetwork.router.ppp[3] packetDropInterfaceDown:sum(packetBytes) 0
scalar RouterPerfNetwork.router.ppp[3] packetDropNoCarrier:count 0
scalar RouterPerfNetwork.router.ppp[3] packetDropNoCarrier:sum(packetBytes) 0
scalar RouterPerfNetwork.router.ppp[4].queue queueLength:last 0
scalar RouterPerfNetwork.router.ppp[4].queue queueLength:max 0
scalar RouterPerfNetwork.router.ppp[4].queue queueLength:timeavg 0
scalar RouterPerfNetwork.router.ppp[4].queue queueBitLength:last 0
scalar RouterPerfNetwork.router.ppp[4].queue queueBitLength:max 0
scalar RouterPerfNetwork.router.ppp[4].queue queueBitLength:timeavg 0
scalar RouterPerfNetwork.router.ppp[4].queue outgoingPackets:count 0
scalar RouterPerfNetwork.router.ppp[4].queue outgoingPacketLengths:sum 0
scalar RouterPerfNetwork.router.ppp[4].queue incomingPackets:count 0
scalar RouterPerfNetwork.router.ppp[4].queue incomingPacketLengths:sum 0
scalar RouterPerfNetwork.router.ppp[4].queue droppedPacketsQueueOverflow:count 0
scalar RouterPerfNetwork.router.ppp[4].queue droppedPacketLengthsQueueOverflow:sum 0
scalar RouterPerfNetwork.router.ppp[4].ppp transmissionState:timeavg 0
scalar RouterPerfNetwork.router.ppp[4].ppp rxPkOk:count 26
scalar RouterPerfNetwork.router.ppp[4].ppp rxPkOk:sum(packetBytes) 21502
scalar RouterPerfNetwork.router.ppp[4].ppp txPk:count 0
scalar RouterPerfNetwork.router.ppp[4].ppp txPk:sum(packetBytes) 0
scalar RouterPerfNetwork.router.ppp[4].ppp rcvdPkFromHl:count 0
scalar RouterPerfNetwork.router.ppp[4].ppp rcvdPkFromHl:sum(packetBytes) 0
scalar RouterPerfNetwork.router.ppp[4].ppp passedUpPk:count 26
scalar RouterPerfNetwork.router.ppp[4].ppp passedUpPk:sum(packetBytes) 21320
scalar RouterPerfNetwork.router.ppp[4].ppp packetDropIncorrectlyReceived:count 0
scalar RouterPerfNetwork.router.ppp[4].ppp packetDropIncorrectlyReceived:sum(packetBytes) 0
scalar RouterPerfNetwork.router.ppp[4].ppp packetDropInterfaceDown:count 0
scalar RouterPerfNetwork.router.ppp[4].ppp packetDropInterfaceDown:sum(packetBytes) 0
scalar RouterPerfNetwork.router.ppp[4] packetDropInterfaceDown:count 0
scalar RouterPerfNetwork.router.ppp[4] packetDropInterfaceDown:sum(packetBytes) 0
scalar RouterPerfNetwork.router.ppp[4] packetDropNoCarrier:count 0
scalar RouterPerfNetwork.router.ppp[4] packetDropNoCarrier:sum(packetBytes) 0
scalar RouterPerfNetwork.router.ppp[5].queue queueLength:last 0
scalar RouterPerfNetwork.router.ppp[5].queue queueLength:max 0
scalar RouterPerfNetwork.router.ppp[5].queue queueLength:timeavg 0
scalar RouterPerfNetwork.router.ppp[5].queue queueBitLength:last 0
scalar RouterPerfNetwork.router.ppp[5].queue queueBitLength:max 0
scalar RouterPerfNetwork.router.ppp[5].queue queueBitLength:timeavg 0
scalar RouterPerfNetwork.router.ppp[5].queue outgoingPackets:count 26
scalar RouterPerfNetwork.router.ppp[5].queue outgoingPacketLengths:sum 170560
scalar RouterPerfNetwork.router.ppp[5].queue incomingPackets:count 26
scalar RouterPerfNetwork.router.ppp[5].queue incomingPacketLengths:sum 170560
scalar RouterPerfNetwork.router.ppp[5].queue droppedPacketsQueueOverflow:count 0
scalar RouterPerfNetwork.router.ppp[5].queue droppedPacketLengthsQueueOverflow:sum 0
scalar RouterPerfNetwork.router.ppp[5].ppp transmissionState:timeavg 0.00172016
scalar RouterPerfNetwork.router.ppp[5].ppp rxPkOk:count 0
scalar RouterPerfNetwork.router.ppp[5].ppp rxPkOk:sum(packetBytes) 0
scalar RouterPerfNetwork.router.ppp[5].ppp txPk:count 26
scalar RouterPerfNetwork.router.ppp[5].ppp txPk:sum(packetBytes) 21502
scalar RouterPerfNetwork.router.ppp[5].ppp rcvdPkFromHl:count 26
scalar RouterPerfNetwork.router.ppp[5].ppp rcvdPkFromHl:sum(packetBytes) 21320
scalar RouterPerfNetwork.router.ppp[5].ppp passedUpPk:count 0
scalar RouterPerfNetwork.router.ppp[5].ppp passedUpPk:sum(packetBytes) 0
scalar RouterPerfNetwork.router.ppp[5].ppp packetDropIncorrectlyReceived:count 0
scalar RouterPerfNetwork.router.ppp[5].ppp packetDropIncorrectlyReceived:sum(packetBytes) 0
scalar RouterPerfNetwork.router.ppp[5].ppp packetDropInterfaceDown:count 0
scalar RouterPerfNetwork.router.ppp[5].ppp packetDropInterfaceDown:sum(packetBytes) 0
scalar RouterPerfNetwork.router.ppp[5] packetDropInterfaceDown:count 0
scalar RouterPerfNetwork.router.ppp[5] packetDropInterfaceDown:sum(packetBytes) 0
scalar RouterPerfNetwork.router.ppp[5] packetDropNoCarrier:count 0
scalar RouterPerfNetwork.router.ppp[5] packetDropNoCarrier:sum(packetBytes) 0
scalar RouterPerfNetwork.router.ipv4.ip packetDropAddressResolutionFailed:count 0
scalar RouterPerfNetwork.router.ipv4.ip packetDropAddressResolutionFailed:sum(packetBytes) 0
scalar RouterPerfNetwork.router.ipv4.ip packetDropHopLimitReached:count 0
scalar RouterPerfNetwork.router.ipv4.ip packetDropHopLimitReached:sum(packetBytes) 0
scalar RouterPerfNetwork.router.ipv4.ip packetDropForwardingDisabled:count 0
scalar RouterPerfNetwork.router.ipv4.ip packetDropForwardingDisabled:sum(packetBytes) 0
scalar RouterPerfNetwork.router.ipv4.ip packetDropLifetimeExpired:count 0
scalar RouterPerfNetwork.router.ipv4.ip packetDropLifetimeExpired:sum(packetBytes) 0
scalar RouterPerfNetwork.router.ipv4.ip packetDropNoInterfaceFound:count 0
scalar RouterPerfNetwork.router.ipv4.ip packetDropNoInterfaceFound:sum(packetBytes) 0
scalar RouterPerfNetwork.router.ipv4.ip packetDropNoRouteFound:count 0
scalar RouterPerfNetwork.router.ipv4.ip packetDropNoRouteFound:sum(packetBytes) 0
scalar RouterPerfNetwork.router.ipv4.ip packetDropUndefined:count 0
scalar RouterPerfNetwork.router.ipv4.ip packetDropUndefined:sum(packetBytes) 0
scalar RouterPerfNetwork.router.ipv4.arp arpResolutionFailed:count 0
scalar RouterPerfNetwork.router.ipv4.arp arpResolutionCompleted:count 0
scalar RouterPerfNetwork.router.ipv4.arp arpResolutionInitiated:count 0
scalar RouterPerfNetwork.router.ipv4.arp arpReplySent:count 0
scalar RouterPerfNetwork.router.ipv4.arp arpReplySent:sum(packetBytes) 0
scalar RouterPerfNetwork.router.ipv4.arp arpRequestSent:count 0
scalar RouterPerfNetwork.router.ipv4.arp arpRequestSent:sum(packetBytes) 0
scalar RouterPerfNetwork.sender[0].ppp[0].queue queueingTime:histogram:count 26
scalar RouterPerfNetwork.sender[0].ppp[0].queue queueingTime:histogram:sumweights 26
scalar RouterPerfNetwork.sender[0].ppp[0].queue queueingTime:histogram:mean 0.051923076923077
scalar RouterPerfNetwork.sender[0].ppp[0].queue queueingTime:histogram:stddev 0.021729520338789
scalar RouterPerfNetwork.sender[0].ppp[0].queue queueingTime:histogram:min 0
scalar RouterPerfNetwork.sender[0].ppp[0].queue queueingTime:histogram:max 0.066156
scalar RouterPerfNetwork.sender[0].ppp[0].queue queueingTime:histogram:numbins 83
scalar RouterPerfNetwork.sender[0].ppp[0].queue queueingTime:histogram:rangemin 0
scalar RouterPerfNetwork.sender[0].ppp[0].queue queueingTime:histogram:rangemax 0.083
scalar RouterPerfNetwork.sender[0].ppp[0].queue queueingTime:histogram:underflows 0
scalar RouterPerfNetwork.sender[0].ppp[0].queue queueingTime:histogram:overflows 0
scalar RouterPerfNetwork.sender[0].ppp[0].queue outgoingPacketLengths:histogram:count 26
scalar RouterPerfNetwork.sender[0].ppp[0].queue outgoingPacketLengths:histogram:sumweights 26
scalar RouterPerfNetwork.sender[0].ppp[0].queue outgoingPacketLengths:histogram:mean 6560
scalar RouterPerfNetwork.sender[0].ppp[0].queue outgoingPacketLengths:histogram:stddev 0
scalar RouterPerfNetwork.sender[0].ppp[0].queue outgoingPacketLengths:histogram:min 6560
scalar RouterPerfNetwork.sender[0].ppp[0].queue outgoingPacketLengths:histogram:max 6560
scalar RouterPerfNetwork.sender[0].ppp[0].queue outgoingPacketLengths:histogram:numbins 2
scalar RouterPerfNetwork.sender[0].ppp[0].queue outgoingPacketLengths:histogram:rangemin 6559
scalar RouterPerfNetwork.sender[0].ppp[0].queue outgoingPacketLengths:histogram:rangemax 6561
scalar RouterPerfNetwork.sender[0].ppp[0].queue outgoingPacketLengths:histogram:underflows 0
scalar RouterPerfNetwork.sender[0].ppp[0].queue outgoingPacketLengths:histogram:overflows 0
scalar RouterPerfNetwork.sender[0].ppp[0].queue flowQueueingTime:histogram:count 0
scalar RouterPerfNetwork.sender[0].ppp[0].queue flowQueueingTime:histogram:sumweights 0
scalar RouterPerfNetwork.sender[0].ppp[0].queue flowQueueingTime:histogram:mean -nan
scalar RouterPerfNetwork.sender[0].ppp[0].queue flowQueueingTime:histogram:stddev nan
scalar RouterPerfNetwork.sender[0].ppp[0].queue flowQueueingTime:histogram:min nan
scalar RouterPerfNetwork.sender[0].ppp[0].queue flowQueueingTime:histogram:max nan
scalar RouterPerfNetwork.sender[0].ppp[0].queue flowQueueingTime:histogram:numbins 1
scalar RouterPerfNetwork.sender[0].ppp[0].queue flowQueueingTime:histogram:rangemin 0
scalar RouterPerfNetwork.sender[0].ppp[0].queue flowQueueingTime:histogram:rangemax 1
scalar RouterPerfNetwork.sender[0].ppp[0].queue flowQueueingTime:histogram:underflows 0
scalar RouterPerfNetwork.sender[0].ppp[0].queue flowQueueingTime:histogram:overflows 0
scalar RouterPerfNetwork.sender[0].ppp[0].queue incomingPacketLengths:histogram:count 1000
scalar RouterPerfNetwork.sender[0].ppp[0].queue incomingPacketLengths:histogram:sumweights 1000
scalar RouterPerfNetwork.sender[0].ppp[0].queue incomingPacketLengths:histogram:mean 6560
scalar RouterPerfNetwork.sender[0].ppp[0].queue incomingPacketLengths:histogram:stddev 0
scalar RouterPerfNetwork.sender[0].ppp[0].queue incomingPacketLengths:histogram:min 6560
scalar RouterPerfNetwork.sender[0].ppp[0].queue incomingPacketLengths:histogram:max 6560
scalar RouterPerfNetwork.sender[0].ppp[0].queue incomingPacketLengths:histogram:numbins 2
scalar RouterPerfNetwork.sender[0].ppp[0].queue incomingPacketLengths:histogram:rangemin 6559
scalar RouterPerfNetwork.sender[0].ppp[0].queue incomingPacketLengths:histogram:rangemax 6561
scalar RouterPerfNetwork.sender[0].ppp[0].queue incomingPacketLengths:histogram:underflows 0
scalar RouterPerfNetwork.sender[0].ppp[0].queue incomingPacketLengths:histogram:overflows 0
scalar RouterPerfNetwork.sender[0].trafGen endToEndDelay:histogram:count 0
scalar RouterPerfNetwork.sender[0].trafGen endToEndDelay:histogram:sumweights 0
scalar RouterPerfNetwork.sender[0].trafGen endToEndDelay:histogram:mean -nan
scalar RouterPerfNetwork.sender[0].trafGen endToEndDelay:histogram:stddev nan
scalar RouterPerfNetwork.sender[0].trafGen endToEndDelay:histogram:min nan
scalar RouterPerfNetwork.sender[0].trafGen endToEndDelay:histogram:max nan
scalar RouterPerfNetwork.sender[0].trafGen endToEndDelay:histogram:numbins 1
scalar RouterPerfNetwork.sender[0].trafGen endToEndDelay:histogram:rangemin 0
scalar RouterPerfNetwork.sender[0].trafGen endToEndDelay:histogram:rangemax 1
scalar RouterPerfNetwork.sender[0].trafGen endToEndDelay:histogram:underflows 0
scalar RouterPerfNetwork.sender[0].trafGen endToEndDelay:histogram:overflows 0
scalar RouterPerfNetwork.sender[1].ppp[0].queue queueingTime:histogram:count 26
scalar RouterPerfNetwork.sender[1].ppp[0].queue queueingTime:histogram:sumweights 26
scalar RouterPerfNetwork.sender[1].ppp[0].queue queueingTime:histogram:mean 0.051923076923077
scalar RouterPerfNetwork.sender[1].ppp[0].queue queueingTime:histogram:stddev 0.021729520338789
scalar RouterPerfNetwork.sender[1].ppp[0].queue queueingTime:histogram:min 0
scalar RouterPerfNetwork.sender[1].ppp[0].queue queueingTime:histogram:max 0.066156
scalar RouterPerfNetwork.sender[1].ppp[0].queue queueingTime:histogram:numbins 83
scalar RouterPerfNetwork.sender[1].ppp[0].queue queueingTime:histogram:rangemin 0
scalar RouterPerfNetwork.sender[1].ppp[0].queue queueingTime:histogram:rangemax 0.083
scalar RouterPerfNetwork.sender[1].ppp[0].queue queueingTime:histogram:underflows 0
scalar RouterPerfNetwork.sender[1].ppp[0].queue queueingTime:histogram:overflows 0
scalar RouterPerfNetwork.sender[1].ppp[0].queue outgoingPacketLengths:histogram:count 26
scalar RouterPerfNetwork.sender[1].ppp[0].queue outgoingPacketLengths:histogram:sumweights 26
scalar RouterPerfNetwork.sender[1].ppp[0].queue outgoingPacketLengths:histogram:mean 6560
scalar RouterPerfNetwork.sender[1].ppp[0].queue outgoingPacketLengths:histogram:stddev 0
scalar RouterPerfNetwork.sender[1].ppp[0].queue outgoingPacketLengths:histogram:min 6560
scalar RouterPerfNetwork.sender[1].ppp[0].queue outgoingPacketLengths:histogram:max 6560
scalar RouterPerfNetwork.sender[1].ppp[0].queue outgoingPacketLengths:histogram:numbins 2
scalar RouterPerfNetwork.sender[1].ppp[0].queue outgoingPacketLengths:histogram:rangemin 6559
scalar RouterPerfNetwork.sender[1].ppp[0].queue outgoingPacketLengths:histogram:rangemax 6561
scalar RouterPerfNetwork.sender[1].ppp[0].queue outgoingPacketLengths:histogram:underflows 0
scalar RouterPerfNetwork.sender[1].ppp[0].queue outgoingPacketLengths:histogram:overflows 0
scalar RouterPerfNetwork.sender[1].ppp[0].queue flowQueueingTime:histogram:count 0
scalar RouterPerfNetwork.sender[1].ppp[0].queue flowQueueingTime:histogram:sumweights 0
scalar RouterPerfNetwork.sender[1].ppp[0].queue flowQueueingTime:histogram:mean -nan
scalar RouterPerfNetwork.sender[1].ppp[0].queue flowQueueingTime:histogram:stddev nan
scalar RouterPerfNetwork.sender[1].ppp[0].queue flowQueueingTime:histogram:min nan
scalar RouterPerfNetwork.sender[1].ppp[0].queue flowQueueingTime:histogram:max nan
scalar RouterPerfNetwork.sender[1].ppp[0].queue flowQueueingTime:histogram:numbins 1
scalar RouterPerfNetwork.sender[1].ppp[0].queue flowQueueingTime:histogram:rangemin 0
scalar RouterPerfNetwork.sender[1].ppp[0].queue flowQueueingTime:histogram:rangemax 1
scalar RouterPerfNetwork.sender[1].ppp[0].queue flowQueueingTime:histogram:underflows 0
scalar RouterPerfNetwork.sender[1].ppp[0].queue flowQueueingTime:histogram:overflows 0
scalar RouterPerfNetwork.sender[1].ppp[0].queue incomingPacketLengths:histogram:count 1000
scalar RouterPerfNetwork.sender[1].ppp[0].queue incomingPacketLengths:histogram:sumweights 1000
scalar RouterPerfNetwork.sender[1].ppp[0].queue incomingPacketLengths:histogram:mean 6560
scalar RouterPerfNetwork.sender[1].ppp[0].queue incomingPacketLengths:histogram:stddev 0
scalar RouterPerfNetwork.sender[1].ppp[0].queue incomingPacketLengths:histogram:min 6560
scalar RouterPerfNetwork.sender[1].ppp[0].queue incomingPacketLengths:histogram:max 6560
scalar RouterPerfNetwork.sender[1].ppp[0].queue incomingPacketLengths:histogram:numbins 2
scalar RouterPerfNetwork.sender[1].ppp[0].queue incomingPacketLengths:histogram:rangemin 6559
scalar RouterPerfNetwork.sender[1].ppp[0].queue incomingPacketLengths:histogram:rangemax 6561
scalar RouterPerfNetwork.sender[1].ppp[0].queue incomingPacketLengths:histogram:underflows 0
scalar RouterPerfNetwork.sender[1].ppp[0].queue incomingPacketLengths:histogram:overflows 0
scalar RouterPerfNetwork.sender[1].trafGen endToEndDelay:histogram:count 0
scalar RouterPerfNetwork.sender[1].trafGen endToEndDelay:histogram:sumweights 0
scalar RouterPerfNetwork.sender[1].trafGen endToEndDelay:histogram:mean -nan
scalar RouterPerfNetwork.sender[1].trafGen endToEndDelay:histogram:stddev nan
scalar RouterPerfNetwork.sender[1].trafGen endToEndDelay:histogram:min nan
scalar RouterPerfNetwork.sender[1].trafGen endToEndDelay:histogram:max nan
scalar RouterPerfNetwork.sender[1].trafGen endToEndDelay:histogram:numbins 1
scalar RouterPerfNetwork.sender[1].trafGen endToEndDelay:histogram:rangemin 0
scalar RouterPerfNetwork.sender[1].trafGen endToEndDelay:histogram:rangemax 1
scalar RouterPerfNetwork.sender[1].trafGen endToEndDelay:histogram:underflows 0
scalar RouterPerfNetwork.sender[1].trafGen endToEndDelay:histogram:overflows 0
scalar RouterPerfNetwork.sender[2].ppp[0].queue queueingTime:histogram:count 26
scalar RouterPerfNetwork.sender[2].ppp[0].queue queueingTime:histogram:sumweights 26
scalar RouterPerfNetwork.sender[2].ppp[0].queue queueingTime:histogram:mean 0.051923076923077
scalar RouterPerfNetwork.sender[2].ppp[0].queue queueingTime:histogram:stddev 0.021729520338789
scalar RouterPerfNetwork.sender[2].ppp[0].queue queueingTime:histogram:min 0
scalar RouterPerfNetwork.sender[2].ppp[0].queue queueingTime:histogram:max 0.066156
scalar RouterPerfNetwork.sender[2].ppp[0].queue queueingTime:histogram:numbins 83
scalar RouterPerfNetwork.sender[2].ppp[0].queue queueingTime:histogram:rangemin 0
scalar RouterPerfNetwork.sender[2].ppp[0].queue queueingTime:histogram:rangemax 0.083
scalar RouterPerfNetwork.sender[2].ppp[0].queue queueingTime:histogram:underflows 0
scalar RouterPerfNetwork.sender[2].ppp[0].queue queueingTime:histogram:overflows 0
scalar RouterPerfNetwork.sender[2].ppp[0].queue outgoingPacketLengths:histogram:count 26
scalar RouterPerfNetwork.sender[2].ppp[0].queue outgoingPacketLengths:histogram:sumweights 26
scalar RouterPerfNetwork.sender[2].ppp[0].queue outgoingPacketLengths:histogram:mean 6560
scalar RouterPerfNetwork.sender[2].ppp[0].queue outgoingPacketLengths:histogram:stddev 0
scalar RouterPerfNetwork.sender[2].ppp[0].queue outgoingPacketLengths:histogram:min 6560
scalar RouterPerfNetwork.sender[2].ppp[0].queue outgoingPacketLengths:histogram:max 6560
scalar RouterPerfNetwork.sender[2].ppp[0].queue outgoingPacketLengths:histogram:numbins 2
scalar RouterPerfNetwork.sender[2].ppp[0].queue outgoingPacketLengths:histogram:rangemin 6559
scalar RouterPerfNetwork.sender[2].ppp[0].queue outgoingPacketLengths:histogram:rangemax 6561
scalar RouterPerfNetwork.sender[2].ppp[0].queue outgoingPacketLengths:histogram:underflows 0
scalar RouterPerfNetwork.sender[2].ppp[0].queue outgoingPacketLengths:histogram:overflows 0
scalar RouterPerfNetwork.sender[2].ppp[0].queue flowQueueingTime:histogram:count 0
scalar RouterPerfNetwork.sender[2].ppp[0].queue flowQueueingTime:histogram:sumweights 0
scalar RouterPerfNetwork.sender[2].ppp[0].queue flowQueueingTime:histogram:mean -nan
scalar RouterPerfNetwork.sender[2].ppp[0].queue flowQueueingTime:histogram:stddev nan
scalar RouterPerfNetwork.sender[2].ppp[0].queue flowQueueingTime:histogram:min nan
scalar RouterPerfNetwork.sender[2].ppp[0].queue flowQueueingTime:histogram:max nan
scalar RouterPerfNetwork.sender[2].ppp[0].queue flowQueueingTime:histogram:numbins 1
scalar RouterPerfNetwork.sender[2].ppp[0].queue flowQueueingTime:histogram:rangemin 0
scalar RouterPerfNetwork.sender[2].ppp[0].queue flowQueueingTime:histogram:rangemax 1
scalar RouterPerfNetwork.sender[2].ppp[0].queue flowQueueingTime:histogram:underflows 0
scalar RouterPerfNetwork.sender[2].ppp[0].queue flowQueueingTime:histogram:overflows 0
scalar RouterPerfNetwork.sender[2].ppp[0].queue incomingPacketLengths:histogram:count 1000
scalar RouterPerfNetwork.sender[2].ppp[0].queue incomingPacketLengths:histogram:sumweights 1000
scalar RouterPerfNetwork.sender[2].ppp[0].queue incomingPacketLengths:histogram:mean 6560
scalar RouterPerfNetwork.sender[2].ppp[0].queue incomingPacketLengths:histogram:stddev 0
scalar RouterPerfNetwork.sender[2].ppp[0].queue incomingPacketLengths:histogram:min 6560
scalar RouterPerfNetwork.sender[2].ppp[0].queue incomingPacketLengths:histogram:max 6560
scalar RouterPerfNetwork.sender[2].ppp[0].queue incomingPacketLengths:histogram:numbins 2
scalar RouterPerfNetwork.sender[2].ppp[0].queue incomingPacketLengths:histogram:rangemin 6559
scalar RouterPerfNetwork.sender[2].ppp[0].queue incomingPacketLengths:histogram:rangemax 6561
scalar RouterPerfNetwork.sender[2].ppp[0].queue incomingPacketLengths:histogram:underflows 0
scalar RouterPerfNetwork.sender[2].ppp[0].queue incomingPacketLengths:histogram:overflows 0
scalar RouterPerfNetwork.sender[2].trafGen endToEndDelay:histogram:count 0
scalar RouterPerfNetwork.sender[2].trafGen endToEndDelay:histogram:sumweights 0
scalar RouterPerfNetwork.sender[2].trafGen endToEndDelay:histogram:mean -nan
scalar RouterPerfNetwork.sender[2].trafGen endToEndDelay:histogram:stddev nan
scalar RouterPerfNetwork.sender[2].trafGen endToEndDelay:histogram:min nan
scalar RouterPerfNetwork.sender[2].trafGen endToEndDelay:histogram:max nan
scalar RouterPerfNetwork.sender[2].trafGen endToEndDelay:histogram:numbins 1
scalar RouterPerfNetwork.sender[2].trafGen endToEndDelay:histogram:rangemin 0
scalar RouterPerfNetwork.sender[2].trafGen endToEndDelay:histogram:rangemax 1
scalar RouterPerfNetwork.sender[2].trafGen endToEndDelay:histogram:underflows 0
scalar RouterPerfNetwork.sender[2].trafGen endToEndDelay:histogram:overflows 0
scalar RouterPerfNetwork.recip[0].ppp[0].queue queueingTime:histogram:count 0
scalar RouterPerfNetwork.recip[0].ppp[0].queue queueingTime:histogram:sumweights 0
scalar RouterPerfNetwork.recip[0].ppp[0].queue queueingTime:histogram:mean -nan
scalar RouterPerfNetwork.recip[0].ppp[0].queue queueingTime:histogram:stddev nan
scalar RouterPerfNetwork.recip[0].ppp[0].queue queueingTime:histogram:min nan
scalar RouterPerfNetwork.recip[0].ppp[0].queue queueingTime:histogram:max nan
scalar RouterPerfNetwork.recip[0].ppp[0].queue queueingTime:histogram:numbins 1
scalar RouterPerfNetwork.recip[0].ppp[0].queue queueingTime:histogram:rangemin 0
scalar RouterPerfNetwork.recip[0].ppp[0].queue queueingTime:histogram:rangemax 1
scalar RouterPerfNetwork.recip[0].ppp[0].queue queueingTime:histogram:underflows 0
scalar RouterPerfNetwork.recip[0].ppp[0].queue queueingTime:histogram:overflows 0
scalar RouterPerfNetwork.recip[0].ppp[0].queue outgoingPacketLengths:histogram:count 0
scalar RouterPerfNetwork.recip[0].ppp[0].queue outgoingPacketLengths:histogram:sumweights 0
scalar RouterPerfNetwork.recip[0].ppp[0].queue outgoingPacketLengths:histogram:mean -nan
scalar RouterPerfNetwork.recip[0].ppp[0].queue outgoingPacketLengths:histogram:stddev nan
scalar RouterPerfNetwork.recip[0].ppp[0].queue outgoingPacketLengths:histogram:min nan
scalar RouterPerfNetwork.recip[0].ppp[0].queue outgoingPacketLengths:histogram:max nan
scalar RouterPerfNetwork.recip[0].ppp[0].queue outgoingPacketLengths:histogram:numbins 1
scalar RouterPerfNetwork.recip[0].ppp[0].queue outgoingPacketLengths:histogram:rangemin 0
scalar RouterPerfNetwork.recip[0].ppp[0].queue outgoingPacketLengths:histogram:rangemax 1
scalar RouterPerfNetwork.recip[0].ppp[0].queue outgoingPacketLengths:histogram:underflows 0
scalar RouterPerfNetwork.recip[0].ppp[0].queue outgoingPacketLengths:histogram:overflows 0
scalar RouterPerfNetwork.recip[0].ppp[0].queue flowQueueingTime:histogram:count 0
scalar RouterPerfNetwork.recip[0].ppp[0].queue flowQueueingTime:histogram:sumweights 0
scalar RouterPerfNetwork.recip[0].ppp[0].queue flowQueueingTime:histogram:mean -nan
scalar RouterPerfNetwork.recip[0].ppp[0].queue flowQueueingTime:histogram:stddev nan
scalar RouterPerfNetwork.recip[0].ppp[0].queue flowQueueingTime:histogram:min nan
scalar RouterPerfNetwork.recip[0].ppp[0].queue flowQueueingTime:histogram:max nan
scalar RouterPerfNetwork.recip[0].ppp[0].queue flowQueueingTime:histogram:numbins 1
scalar RouterPerfNetwork.recip[0].ppp[0].queue flowQueueingTime:histogram:rangemin 0
scalar RouterPerfNetwork.recip[0].ppp[0].queue flowQueueingTime:histogram:rangemax 1
scalar RouterPerfNetwork.recip[0].ppp[0].queue flowQueueingTime:histogram:underflows 0
scalar RouterPerfNetwork.recip[0].ppp[0].queue flowQueueingTime:histogram:overflows 0
scalar RouterPerfNetwork.recip[0].ppp[0].queue incomingPacketLengths:histogram:count 0
scalar RouterPerfNetwork.recip[0].ppp[0].queue incomingPacketLengths:histogram:sumweights 0
scalar RouterPerfNetwork.recip[0].ppp[0].queue incomingPacketLengths:histogram:mean -nan
scalar RouterPerfNetwork.recip[0].ppp[0].queue incomingPacketLengths:histogram:stddev nan
scalar RouterPerfNetwork.recip[0].ppp[0].queue incomingPacketLengths:histogram:min nan
scalar RouterPerfNetwork.recip[0].ppp[0].queue incomingPacketLengths:histogram:max nan
scalar RouterPerfNetwork.recip[0].ppp[0].queue incomingPacketLengths:histogram:numbins 1
scalar RouterPerfNetwork.recip[0].ppp[0].queue incomingPacketLengths:histogram:rangemin 0
scalar RouterPerfNetwork.recip[0].ppp[0].queue incomingPacketLengths:histogram:rangemax 1
scalar RouterPerfNetwork.recip[0].ppp[0].queue incomingPacketLengths:histogram:underflows 0
scalar RouterPerfNetwork.recip[0].ppp[0].queue incomingPacketLengths:histogram:overflows 0
scalar RouterPerfNetwork.recip[0].trafGen endToEndDelay:histogram:count 26
scalar RouterPerfNetwork.recip[0].trafGen endToEndDelay:histogram:sumweights 26
scalar RouterPerfNetwork.recip[0].trafGen endToEndDelay:histogram:mean 0.065155076923077
scalar RouterPerfNetwork.recip[0].trafGen endToEndDelay:histogram:stddev 0.021729520338789
scalar RouterPerfNetwork.recip[0].trafGen endToEndDelay:histogram:min 0.013232
scalar RouterPerfNetwork.recip[0].trafGen endToEndDelay:histogram:max 0.079388
scalar RouterPerfNetwork.recip[0].trafGen endToEndDelay:histogram:numbins 48
scalar RouterPerfNetwork.recip[0].trafGen endToEndDelay:histogram:rangemin 0
scalar RouterPerfNetwork.recip[0].trafGen endToEndDelay:histogram:rangemax 0.096
scalar RouterPerfNetwork.recip[0].trafGen endToEndDelay:histogram:underflows 0
scalar RouterPerfNetwork.recip[0].trafGen endToEndDelay:histogram:overflows 0
scalar RouterPerfNetwork.recip[1].ppp[0].queue queueingTime:histogram:count 0
scalar RouterPerfNetwork.recip[1].ppp[0].queue queueingTime:histogram:sumweights 0
scalar RouterPerfNetwork.recip[1].ppp[0].queue queueingTime:histogram:mean -nan
scalar RouterPerfNetwork.recip[1].ppp[0].queue queueingTime:histogram:stddev nan
scalar RouterPerfNetwork.recip[1].ppp[0].queue queueingTime:histogram:min nan
scalar RouterPerfNetwork.recip[1].ppp[0].queue queueingTime:histogram:max nan
scalar RouterPerfNetwork.recip[1].ppp[0].queue queueingTime:histogram:numbins 1
scalar RouterPerfNetwork.recip[1].ppp[0].queue queueingTime:histogram:rangemin 0
scalar RouterPerfNetwork.recip[1].ppp[0].queue queueingTime:histogram:rangemax 1
scalar RouterPerfNetwork.recip[1].ppp[0].queue queueingTime:histogram:underflows 0
scalar RouterPerfNetwork.recip[1].ppp[0].queue queueingTime:histogram:overflows 0
scalar RouterPerfNetwork.recip[1].ppp[0].queue outgoingPacketLengths:histogram:count 0
scalar RouterPerfNetwork.recip[1].ppp[0].queue outgoingPacketLengths:histogram:sumweights 0
scalar RouterPerfNetwork.recip[1].ppp[0].queue outgoingPacketLengths:histogram:mean -nan
scalar RouterPerfNetwork.recip[1].ppp[0].queue outgoingPacketLengths:histogram:stddev nan
scalar RouterPerfNetwork.recip[1].ppp[0].queue outgoingPacketLengths:histogram:min nan
scalar RouterPerfNetwork.recip[1].ppp[0].queue outgoingPacketLengths:histogram:max nan
scalar RouterPerfNetwork.recip[1].ppp[0].queue outgoingPacketLengths:histogram:numbins 1
scalar RouterPerfNetwork.recip[1].ppp[0].queue outgoingPacketLengths:histogram:rangemin 0
scalar RouterPerfNetwork.recip[1].ppp[0].queue outgoingPacketLengths:histogram:rangemax 1
scalar RouterPerfNetwork.recip[1].ppp[0].queue outgoingPacketLengths:histogram:underflows 0
scalar RouterPerfNetwork.recip[1].ppp[0].queue outgoingPacketLengths:histogram:overflows 0
scalar RouterPerfNetwork.recip[1].ppp[0].queue flowQueueingTime:histogram:count 0
scalar RouterPerfNetwork.recip[1].ppp[0].queue flowQueueingTime:histogram:sumweights 0
scalar RouterPerfNetwork.recip[1].ppp[0].queue flowQueueingTime:histogram:mean -nan
scalar RouterPerfNetwork.recip[1].ppp[0].queue flowQueueingTime:histogram:stddev nan
scalar RouterPerfNetwork.recip[1].ppp[0].queue flowQueueingTime:histogram:min nan
scalar RouterPerfNetwork.recip[1].ppp[0].queue flowQueueingTime:histogram:max nan
scalar RouterPerfNetwork.recip[1].ppp[0].queue flowQueueingTime:histogram:numbins 1
scalar RouterPerfNetwork.recip[1].ppp[0].queue flowQueueingTime:histogram:rangemin 0
scalar RouterPerfNetwork.recip[1].ppp[0].queue flowQueueingTime:histogram:rangemax 1
scalar RouterPerfNetwork.recip[1].ppp[0].queue flowQueueingTime:histogram:underflows 0
scalar RouterPerfNetwork.recip[1].ppp[0].queue flowQueueingTime:histogram:overflows 0
scalar RouterPerfNetwork.recip[1].ppp[0].queue incomingPacketLengths:histogram:count 0
scalar RouterPerfNetwork.recip[1].ppp[0].queue incomingPacketLengths:histogram:sumweights 0
scalar RouterPerfNetwork.recip[1].ppp[0].queue incomingPacketLengths:histogram:mean -nan
scalar RouterPerfNetwork.recip[1].ppp[0].queue incomingPacketLengths:histogram:stddev nan
scalar RouterPerfNetwork.recip[1].ppp[0].queue incomingPacketLengths:histogram:min nan
scalar RouterPerfNetwork.recip[1].ppp[0].queue incomingPacketLengths:histogram:max nan
scalar RouterPerfNetwork.recip[1].ppp[0].queue incomingPacketLengths:histogram:numbins 1
scalar RouterPerfNetwork.recip[1].ppp[0].queue incomingPacketLengths:histogram:rangemin 0
scalar RouterPerfNetwork.recip[1].ppp[0].queue incomingPacketLengths:histogram:rangemax 1
scalar RouterPerfNetwork.recip[1].ppp[0].queue incomingPacketLengths:histogram:underflows 0
scalar RouterPerfNetwork.recip[1].ppp[0].queue incomingPacketLengths:histogram:overflows 0
scalar RouterPerfNetwork.recip[1].trafGen endToEndDelay:histogram:count 26
scalar RouterPerfNetwork.recip[1].trafGen endToEndDelay:histogram:sumweights 26
scalar RouterPerfNetwork.recip[1].trafGen endToEndDelay:histogram:mean 0.065155076923077
scalar RouterPerfNetwork.recip[1].trafGen endToEndDelay:histogram:stddev 0.021729520338789
scalar RouterPerfNetwork.recip[1].trafGen endToEndDelay:histogram:min 0.013232
scalar RouterPerfNetwork.recip[1].trafGen endToEndDelay:histogram:max 0.079388
scalar RouterPerfNetwork.recip[1].trafGen endToEndDelay:histogram:numbins 48
scalar RouterPerfNetwork.recip[1].trafGen endToEndDelay:histogram:rangemin 0
scalar RouterPerfNetwork.recip[1].trafGen endToEndDelay:histogram:rangemax 0.096
scalar RouterPerfNetwork.recip[1].trafGen endToEndDelay:histogram:underflows 0
scalar RouterPerfNetwork.recip[1].trafGen endToEndDelay:histogram:overflows 0
scalar RouterPerfNetwork.recip[2].ppp[0].queue queueingTime:histogram:count 0
scalar RouterPerfNetwork.recip[2].ppp[0].queue queueingTime:histogram:sumweights 0
scalar RouterPerfNetwork.recip[2].ppp[0].queue queueingTime:histogram:mean -nan
scalar RouterPerfNetwork.recip[2].ppp[0].queue queueingTime:histogram:stddev nan
scalar RouterPerfNetwork.recip[2].ppp[0].queue queueingTime:histogram:min nan
scalar RouterPerfNetwork.recip[2].ppp[0].queue queueingTime:histogram:max nan
scalar RouterPerfNetwork.recip[2].ppp[0].queue queueingTime:histogram:numbins 1
scalar RouterPerfNetwork.recip[2].ppp[0].queue queueingTime:histogram:rangemin 0
scalar RouterPerfNetwork.recip[2].ppp[0].queue queueingTime:histogram:rangemax 1
scalar RouterPerfNetwork.recip[2].ppp[0].queue queueingTime:histogram:underflows 0
scalar RouterPerfNetwork.recip[2].ppp[0].queue queueingTime:histogram:overflows 0
scalar RouterPerfNetwork.recip[2].ppp[0].queue outgoingPacketLengths:histogram:count 0
scalar RouterPerfNetwork.recip[2].ppp[0].queue outgoingPacketLengths:histogram:sumweights 0
scalar RouterPerfNetwork.recip[2].ppp[0].queue outgoingPacketLengths:histogram:mean -nan
scalar RouterPerfNetwork.recip[2].ppp[0].queue outgoingPacketLengths:histogram:stddev nan
scalar RouterPerfNetwork.recip[2].ppp[0].queue outgoingPacketLengths:histogram:min nan
scalar RouterPerfNetwork.recip[2].ppp[0].queue outgoingPacketLengths:histogram:max nan
scalar RouterPerfNetwork.recip[2].ppp[0].queue outgoingPacketLengths:histogram:numbins 1
scalar RouterPerfNetwork.recip[2].ppp[0].queue outgoingPacketLengths:histogram:rangemin 0
scalar RouterPerfNetwork.recip[2].ppp[0].queue outgoingPacketLengths:histogram:rangemax 1
scalar RouterPerfNetwork.recip[2].ppp[0].queue outgoingPacketLengths:histogram:underflows 0
scalar RouterPerfNetwork.recip[2].ppp[0].queue outgoingPacketLengths:histogram:overflows 0
scalar RouterPerfNetwork.recip[2].ppp[0].queue flowQueueingTime:histogram:count 0
scalar RouterPerfNetwork.recip[2].ppp[0].queue flowQueueingTime:histogram:sumweights 0
scalar RouterPerfNetwork.recip[2].ppp[0].queue flowQueueingTime:histogram:mean -nan
scalar RouterPerfNetwork.recip[2].ppp[0].queue flowQueueingTime:histogram:stddev nan
scalar RouterPerfNetwork.recip[2].ppp[0].queue flowQueueingTime:histogram:min nan
scalar RouterPerfNetwork.recip[2].ppp[0].queue flowQueueingTime:histogram:max nan
scalar RouterPerfNetwork.recip[2].ppp[0].queue flowQueueingTime:histogram:numbins 1
scalar RouterPerfNetwork.recip[2].ppp[0].queue flowQueueingTime:histogram:rangemin 0
scalar RouterPerfNetwork.recip[2].ppp[0].queue flowQueueingTime:histogram:rangemax 1
scalar RouterPerfNetwork.recip[2].ppp[0].queue flowQueueingTime:histogram:underflows 0
scalar RouterPerfNetwork.recip[2].ppp[0].queue flowQueueingTime:histogram:overflows 0
scalar RouterPerfNetwork.recip[2].ppp[0].queue incomingPacketLengths:histogram:count 0
scalar RouterPerfNetwork.recip[2].ppp[0].queue incomingPacketLengths:histogram:sumweights 0
scalar RouterPerfNetwork.recip[2].ppp[0].queue incomingPacketLengths:histogram:mean -nan
scalar RouterPerfNetwork.recip[2].ppp[0].queue incomingPacketLengths:histogram:stddev nan
scalar RouterPerfNetwork.recip[2].ppp[0].queue incomingPacketLengths:histogram:min nan
scalar RouterPerfNetwork.recip[2].ppp[0].queue incomingPacketLengths:histogram:max nan
scalar RouterPerfNetwork.recip[2].ppp[0].queue incomingPacketLengths:histogram:numbins 1
scalar RouterPerfNetwork.recip[2].ppp[0].queue incomingPacketLengths:histogram:rangemin 0
scalar RouterPerfNetwork.recip[2].ppp[0].queue incomingPacketLengths:histogram:rangemax 1
scalar RouterPerfNetwork.recip[2].ppp[0].queue incomingPacketLengths:histogram:underflows 0
scalar RouterPerfNetwork.recip[2].ppp[0].queue incomingPacketLengths:histogram:overflows 0
scalar RouterPerfNetwork.recip[2].trafGen endToEndDelay:histogram:count 26
scalar RouterPerfNetwork.recip[2].trafGen endToEndDelay:histogram:sumweights 26
scalar RouterPerfNetwork.recip[2].trafGen endToEndDelay:histogram:mean 0.065155076923077
scalar RouterPerfNetwork.recip[2].trafGen endToEndDelay:histogram:stddev 0.021729520338789
scalar RouterPerfNetwork.recip[2].trafGen endToEndDelay:histogram:min 0.013232
scalar RouterPerfNetwork.recip[2].trafGen endToEndDelay:histogram:max 0.079388
scalar RouterPerfNetwork.recip[2].trafGen endToEndDelay:histogram:numbins 48
scalar RouterPerfNetwork.recip[2].trafGen endToEndDelay:histogram:rangemin 0
scalar RouterPerfNetwork.recip[2].trafGen endToEndDelay:histogram:rangemax 0.096
scalar RouterPerfNetwork.recip[2].trafGen endToEndDelay:histogram:underflows 0
scalar RouterPerfNetwork.recip[2].trafGen endToEndDelay:histogram:overflows 0
scalar RouterPerfNetwork.router.ppp[0].queue queueingTime:histogram:count 0
scalar RouterPerfNetwork.router.ppp[0].queue queueingTime:histogram:sumweights 0
scalar RouterPerfNetwork.router.ppp[0].queue queueingTime:histogram:mean -nan
scalar RouterPerfNetwork.router.ppp[0].queue queueingTime:histogram:stddev nan
scalar RouterPerfNetwork.router.ppp[0].queue queueingTime:histogram:min nan
scalar RouterPerfNetwork.router.ppp[0].queue queueingTime:histogram:max nan
scalar RouterPerfNetwork.router.ppp[0].queue queueingTime:histogram:numbins 1
scalar RouterPerfNetwork.router.ppp[0].queue queueingTime:histogram:rangemin 0
scalar RouterPerfNetwork.router.ppp[0].queue queueingTime:histogram:rangemax 1
scalar RouterPerfNetwork.router.ppp[0].queue queueingTime:histogram:underflows 0
scalar RouterPerfNetwork.router.ppp[0].queue queueingTime:histogram:overflows 0
scalar RouterPerfNetwork.router.ppp[0].queue outgoingPacketLengths:histogram:count 0
scalar RouterPerfNetwork.router.ppp[0].queue outgoingPacketLengths:histogram:sumweights 0
scalar RouterPerfNetwork.router.ppp[0].queue outgoingPacketLengths:histogram:mean -nan
scalar RouterPerfNetwork.router.ppp[0].queue outgoingPacketLengths:histogram:stddev nan
scalar RouterPerfNetwork.router.ppp[0].queue outgoingPacketLengths:histogram:min nan
scalar RouterPerfNetwork.router.ppp[0].queue outgoingPacketLengths:histogram:max nan
scalar RouterPerfNetwork.router.ppp[0].queue outgoingPacketLengths:histogram:numbins 1
scalar RouterPerfNetwork.router.ppp[0].queue outgoingPacketLengths:histogram:rangemin 0
scalar RouterPerfNetwork.router.ppp[0].queue outgoingPacketLengths:histogram:rangemax 1
scalar RouterPerfNetwork.router.ppp[0].queue outgoingPacketLengths:histogram:underflows 0
scalar RouterPerfNetwork.router.ppp[0].queue outgoingPacketLengths:histogram:overflows 0
scalar RouterPerfNetwork.router.ppp[0].queue flowQueueingTime:histogram:count 0
scalar RouterPerfNetwork.router.ppp[0].queue flowQueueingTime:histogram:sumweights 0
scalar RouterPerfNetwork.router.ppp[0].queue flowQueueingTime:histogram:mean -nan
scalar RouterPerfNetwork.router.ppp[0].queue flowQueueingTime:histogram:stddev nan
scalar RouterPerfNetwork.router.ppp[0].queue flowQueueingTime:histogram:min nan
scalar RouterPerfNetwork.router.ppp[0].queue flowQueueingTime:histogram:max nan
scalar RouterPerfNetwork.router.ppp[0].queue flowQueueingTime:histogram:numbins 1
scalar RouterPerfNetwork.router.ppp[0].queue flowQueueingTime:histogram:rangemin 0
scalar RouterPerfNetwork.router.ppp[0].queue flowQueueingTime:histogram:rangemax 1
scalar RouterPerfNetwork.router.ppp[0].queue flowQueueingTime:histogram:underflows 0
scalar RouterPerfNetwork.router.ppp[0].queue flowQueueingTime:histogram:overflows 0
scalar RouterPerfNetwork.router.ppp[0].queue incomingPacketLengths:histogram:count 0
scalar RouterPerfNetwork.router.ppp[0].queue incomingPacketLengths:histogram:sumweights 0
scalar RouterPerfNetwork.router.ppp[0].queue incomingPacketLengths:histogram:mean -nan
scalar RouterPerfNetwork.router.ppp[0].queue incomingPacketLengths:histogram:stddev nan
scalar RouterPerfNetwork.router.ppp[0].queue incomingPacketLengths:histogram:min nan
scalar RouterPerfNetwork.router.ppp[0].queue incomingPacketLengths:histogram:max nan
scalar RouterPerfNetwork.router.ppp[0].queue incomingPacketLengths:histogram:numbins 1
scalar RouterPerfNetwork.router.ppp[0].queue incomingPacketLengths:histogram:rangemin 0
scalar RouterPerfNetwork.router.ppp[0].queue incomingPacketLengths:histogram:rangemax 1
scalar RouterPerfNetwork.router.ppp[0].queue incomingPacketLengths:histogram:underflows 0
scalar RouterPerfNetwork.router.ppp[0].queue incomingPacketLengths:histogram:overflows 0
scalar RouterPerfNetwork.router.ppp[1].queue queueingTime:histogram:count 26
scalar RouterPerfNetwork.router.ppp[1].queue queueingTime:histogram:sumweights 26
scalar RouterPerfNetwork.router.ppp[1].queue queueingTime:histogram:mean 0
scalar RouterPerfNetwork.router.ppp[1].queue queueingTime:histogram:stddev 0
scalar RouterPerfNetwork.router.ppp[1].queue queueingTime:histogram:min 0
scalar RouterPerfNetwork.router.ppp[1].queue queueingTime:histogram:max 0
scalar RouterPerfNetwork.router.ppp[1].queue queueingTime:histogram:numbins 50
scalar RouterPerfNetwork.router.ppp[1].queue queueingTime:histogram:rangemin -0.5
scalar RouterPerfNetwork.router.ppp[1].queue queueingTime:histogram:rangemax 0.5
scalar RouterPerfNetwork.router.ppp[1].queue queueingTime:histogram:underflows 0
scalar RouterPerfNetwork.router.ppp[1].queue queueingTime:histogram:overflows 0
scalar RouterPerfNetwork.router.ppp[1].queue outgoingPacketLengths:histogram:count 26
scalar RouterPerfNetwork.router.ppp[1].queue outgoingPacketLengths:histogram:sumweights 26
scalar RouterPerfNetwork.router.ppp[1].queue outgoingPacketLengths:histogram:mean 6560
scalar RouterPerfNetwork.router.ppp[1].queue outgoingPacketLengths:histogram:stddev 0
scalar RouterPerfNetwork.router.ppp[1].queue outgoingPacketLengths:histogram:min 6560
scalar RouterPerfNetwork.router.ppp[1].queue outgoingPacketLengths:histogram:max 6560
scalar RouterPerfNetwork.router.ppp[1].queue outgoingPacketLengths:histogram:numbins 2
scalar RouterPerfNetwork.router.ppp[1].queue outgoingPacketLengths:histogram:rangemin 6559
scalar RouterPerfNetwork.router.ppp[1].queue outgoingPacketLengths:histogram:rangemax 6561
scalar RouterPerfNetwork.router.ppp[1].queue outgoingPacketLengths:histogram:underflows 0
scalar RouterPerfNetwork.router.ppp[1].queue outgoingPacketLengths:histogram:overflows 0
scalar RouterPerfNetwork.router.ppp[1].queue flowQueueingTime:histogram:count 0
scalar RouterPerfNetwork.router.ppp[1].queue flowQueueingTime:histogram:sumweights 0
scalar RouterPerfNetwork.router.ppp[1].queue flowQueueingTime:histogram:mean -nan
scalar RouterPerfNetwork.router.ppp[1].queue flowQueueingTime:histogram:stddev nan
scalar RouterPerfNetwork.router.ppp[1].queue flowQueueingTime:histogram:min nan
scalar RouterPerfNetwork.router.ppp[1].queue flowQueueingTime:histogram:max nan
scalar RouterPerfNetwork.router.ppp[1].queue flowQueueingTime:histogram:numbins 1
scalar RouterPerfNetwork.router.ppp[1].queue flowQueueingTime:histogram:rangemin 0
scalar RouterPerfNetwork.router.ppp[1].queue flowQueueingTime:histogram:rangemax 1
scalar RouterPerfNetwork.router.ppp[1].queue flowQueueingTime:histogram:underflows 0
scalar RouterPerfNetwork.router.ppp[1].queue flowQueueingTime:histogram:overflows 0
scalar RouterPerfNetwork.router.ppp[1].queue incomingPacketLengths:histogram:count 26
scalar RouterPerfNetwork.router.ppp[1].queue incomingPacketLengths:histogram:sumweights 26
scalar RouterPerfNetwork.router.ppp[1].queue incomingPacketLengths:histogram:mean 6560
scalar RouterPerfNetwork.router.ppp[1].queue incomingPacketLengths:histogram:stddev 0
scalar RouterPerfNetwork.router.ppp[1].queue incomingPacketLengths:histogram:min 6560
scalar RouterPerfNetwork.router.ppp[1].queue incomingPacketLengths:histogram:max 6560
scalar RouterPerfNetwork.router.ppp[1].queue incomingPacketLengths:histogram:numbins 2
scalar RouterPerfNetwork.router.ppp[1].queue incomingPacketLengths:histogram:rangemin 6559
scalar RouterPerfNetwork.router.ppp[1].queue incomingPacketLengths:histogram:rangemax 6561
scalar RouterPerfNetwork.router.ppp[1].queue incomingPacketLengths:histogram:underflows 0
scalar RouterPerfNetwork.router.ppp[1].queue incomingPacketLengths:histogram:overflows 0
scalar RouterPerfNetwork.router.ppp[2].queue queueingTime:histogram:count 0
scalar RouterPerfNetwork.router.ppp[2].queue queueingTime:histogram:sumweights 0
scalar RouterPerfNetwork.router.ppp[2].queue queueingTime:histogram:mean -nan
scalar RouterPerfNetwork.router.ppp[2].queue queueingTime:histogram:stddev nan
scalar RouterPerfNetwork.router.ppp[2].queue queueingTime:histogram:min nan
[...]
scalar RouterPerfNetwork.router.ppp[5].queue incomingDataRate:vector:sumweights 1000
scalar RouterPerfNetwork.router.ppp[5].queue incomingDataRate:vector:mean 1705.6
scalar RouterPerfNetwork.router.ppp[5].queue incomingDataRate:vector:stddev 38568.653459379
scalar RouterPerfNetwork.router.ppp[5].queue incomingDataRate:vector:min 0
scalar RouterPerfNetwork.router.ppp[5].queue incomingDataRate:vector:max 984000
scalar RouterPerfNetwork.router.ppp[5].queue incomingDataRate:vector:starttime 0.1
scalar RouterPerfNetwork.router.ppp[5].queue incomingDataRate:vector:endtime 100
scalar RouterPerfNetwork.router.ppp[5].queue outgoingPacketLengths:vector:count 26
scalar RouterPerfNetwork.router.ppp[5].queue outgoingPacketLengths:vector:sum 170560
scalar RouterPerfNetwork.router.ppp[5].queue outgoingPacketLengths:vector:sumweights 26
scalar RouterPerfNetwork.router.ppp[5].queue outgoingPacketLengths:vector:mean 6560
scalar RouterPerfNetwork.router.ppp[5].queue outgoingPacketLengths:vector:stddev 0
scalar RouterPerfNetwork.router.ppp[5].queue outgoingPacketLengths:vector:min 6560
scalar RouterPerfNetwork.router.ppp[5].queue outgoingPacketLengths:vector:max 6560
scalar RouterPerfNetwork.router.ppp[5].queue outgoingPacketLengths:vector:starttime 0.006616
scalar RouterPerfNetwork.router.ppp[5].queue outgoingPacketLengths:vector:endtime 0.172016
scalar RouterPerfNetwork.router.ppp[5].queue outgoingDataRate:vector:count 1000
scalar RouterPerfNetwork.router.ppp[5].queue outgoingDataRate:vector:sum 1705600
scalar RouterPerfNetwork.router.ppp[5].queue outgoingDataRate:vector:sumweights 1000
scalar RouterPerfNetwork.router.ppp[5].queue outgoingDataRate:vector:mean 1705.6
scalar RouterPerfNetwork.router.ppp[5].queue outgoingDataRate:vector:stddev 38568.653459379
scalar RouterPerfNetwork.router.ppp[5].queue outgoingDataRate:vector:min 0
scalar RouterPerfNetwork.router.ppp[5].queue outgoingDataRate:vector:max 984000
scalar RouterPerfNetwork.router.ppp[5].queue outgoingDataRate:vector:starttime 0.1
scalar RouterPerfNetwork.router.ppp[5].queue outgoingDataRate:vector:endtime 100
scalar RouterPerfNetwork.router.ppp[5].queue droppedPacketLengthsQueueOverflow:vector:count 0
scalar RouterPerfNetwork.router.ppp[5].queue droppedPacketLengthsQueueOverflow:vector:sum 0
scalar RouterPerfNetwork.router.ppp[5].queue droppedPacketLengthsQueueOverflow:vector:sumweights 0
scalar RouterPerfNetwork.router.ppp[5].queue droppedPacketLengthsQueueOverflow:vector:mean -nan
scalar RouterPerfNetwork.router.ppp[5].queue droppedPacketLengthsQueueOverflow:vector:stddev nan
scalar RouterPerfNetwork.router.ppp[5].queue droppedPacketLengthsQueueOverflow:vector:min inf
scalar RouterPerfNetwork.router.ppp[5].queue droppedPacketLengthsQueueOverflow:vector:max -inf
scalar RouterPerfNetwork.router.ppp[5].queue droppedPacketLengthsQueueOverflow:vector:starttime nan
scalar RouterPerfNetwork.router.ppp[5].queue droppedPacketLengthsQueueOverflow:vector:endtime nan
scalar RouterPerfNetwork.router.ppp[5].queue flowQueueingTime:vector:count 0
scalar RouterPerfNetwork.router.ppp[5].queue flowQueueingTime:vector:sum 0
scalar RouterPerfNetwork.router.ppp[5].queue flowQueueingTime:vector:sumweights 0
scalar RouterPerfNetwork.router.ppp[5].queue flowQueueingTime:vector:mean -nan
scalar RouterPerfNetwork.router.ppp[5].queue flowQueueingTime:vector:stddev nan
scalar RouterPerfNetwork.router.ppp[5].queue flowQueueingTime:vector:min inf
scalar RouterPerfNetwork.router.ppp[5].queue flowQueueingTime:vector:max -inf
scalar RouterPerfNetwork.router.ppp[5].queue flowQueueingTime:vector:starttime nan
scalar RouterPerfNetwork.router.ppp[5].queue flowQueueingTime:vector:endtime nan
scalar RouterPerfNetwork.router.ppp[5].queue flowIncomingDataRate:vector:count 1000
scalar RouterPerfNetwork.router.ppp[5].queue flowIncomingDataRate:vector:sum 0
scalar RouterPerfNetwork.router.ppp[5].queue flowIncomingDataRate:vector:sumweights 1000
scalar RouterPerfNetwork.router.ppp[5].queue flowIncomingDataRate:vector:mean 0
scalar RouterPerfNetwork.router.ppp[5].queue flowIncomingDataRate:vector:stddev 0
scalar RouterPerfNetwork.router.ppp[5].queue flowIncomingDataRate:vector:min 0
scalar RouterPerfNetwork.router.ppp[5].queue flowIncomingDataRate:vector:max 0
scalar RouterPerfNetwork.router.ppp[5].queue flowIncomingDataRate:vector:starttime 0.1
scalar RouterPerfNetwork.router.ppp[5].queue flowIncomingDataRate:vector:endtime 100
scalar RouterPerfNetwork.router.ppp[5].queue flowOutgoingDataRate:vector:count 1000
scalar RouterPerfNetwork.router.ppp[5].queue flowOutgoingDataRate:vector:sum 0
scalar RouterPerfNetwork.router.ppp[5].queue flowOutgoingDataRate:vector:sumweights 1000
scalar RouterPerfNetwork.router.ppp[5].queue flowOutgoingDataRate:vector:mean 0
scalar RouterPerfNetwork.router.ppp[5].queue flowOutgoingDataRate:vector:stddev 0
scalar RouterPerfNetwork.router.ppp[5].queue flowOutgoingDataRate:vector:min 0
scalar RouterPerfNetwork.router.ppp[5].queue flowOutgoingDataRate:vector:max 0
scalar RouterPerfNetwork.router.ppp[5].queue flowOutgoingDataRate:vector:starttime 0.1
scalar RouterPerfNetwork.router.ppp[5].queue flowOutgoingDataRate:vector:endtime 100
scalar RouterPerfNetwork.router.ppp[5].ppp transmissionState:vector:count 53
scalar RouterPerfNetwork.router.ppp[5].ppp transmissionState:vector:sum 26
scalar RouterPerfNetwork.router.ppp[5].ppp transmissionState:vector:sumweights 53
scalar RouterPerfNetwork.router.ppp[5].ppp transmissionState:vector:mean 0.49056603773585
scalar RouterPerfNetwork.router.ppp[5].ppp transmissionState:vector:stddev 0.50469493868284
scalar RouterPerfNetwork.router.ppp[5].ppp transmissionState:vector:min 0
scalar RouterPerfNetwork.router.ppp[5].ppp transmissionState:vector:max 1
scalar RouterPerfNetwork.router.ppp[5].ppp transmissionState:vector:starttime 0
scalar RouterPerfNetwork.router.ppp[5].ppp transmissionState:vector:endtime 0.178632
scalar RouterPerfNetwork.router.ppp[5].ppp txPk:vector(packetBytes):count 26
scalar RouterPerfNetwork.router.ppp[5].ppp txPk:vector(packetBytes):sum 21502
scalar RouterPerfNetwork.router.ppp[5].ppp txPk:vector(packetBytes):sumweights 26
scalar RouterPerfNetwork.router.ppp[5].ppp txPk:vector(packetBytes):mean 827
scalar RouterPerfNetwork.router.ppp[5].ppp txPk:vector(packetBytes):stddev 0
scalar RouterPerfNetwork.router.ppp[5].ppp txPk:vector(packetBytes):min 827
scalar RouterPerfNetwork.router.ppp[5].ppp txPk:vector(packetBytes):max 827
scalar RouterPerfNetwork.router.ppp[5].ppp txPk:vector(packetBytes):starttime 0.006616
scalar RouterPerfNetwork.router.ppp[5].ppp txPk:vector(packetBytes):endtime 0.172016
scalar RouterPerfNetwork.router.ppp[5].ppp rxPkOk:vector(packetBytes):count 0
scalar RouterPerfNetwork.router.ppp[5].ppp rxPkOk:vector(packetBytes):sum 0
scalar RouterPerfNetwork.router.ppp[5].ppp rxPkOk:vector(packetBytes):sumweights 0
scalar RouterPerfNetwork.router.ppp[5].ppp rxPkOk:vector(packetBytes):mean -nan
scalar RouterPerfNetwork.router.ppp[5].ppp rxPkOk:vector(packetBytes):stddev nan
scalar RouterPerfNetwork.router.ppp[5].ppp rxPkOk:vector(packetBytes):min inf
scalar RouterPerfNetwork.router.ppp[5].ppp rxPkOk:vector(packetBytes):max -inf
scalar RouterPerfNetwork.router.ppp[5].ppp rxPkOk:vector(packetBytes):starttime nan
scalar RouterPerfNetwork.router.ppp[5].ppp rxPkOk:vector(packetBytes):endtime nan
scalar RouterPerfNetwork.router.ppp[5].ppp packetDropIncorrectlyReceived:vector(packetBytes):count 0
scalar RouterPerfNetwork.router.ppp[5].ppp packetDropIncorrectlyReceived:vector(packetBytes):sum 0
scalar RouterPerfNetwork.router.ppp[5].ppp packetDropIncorrectlyReceived:vector(packetBytes):sumweights 0
scalar RouterPerfNetwork.router.ppp[5].ppp packetDropIncorrectlyReceived:vector(packetBytes):mean -nan
scalar RouterPerfNetwork.router.ppp[5].ppp packetDropIncorrectlyReceived:vector(packetBytes):stddev nan
scalar RouterPerfNetwork.router.ppp[5].ppp packetDropIncorrectlyReceived:vector(packetBytes):min inf
scalar RouterPerfNetwork.router.ppp[5].ppp packetDropIncorrectlyReceived:vector(packetBytes):max -inf
scalar RouterPerfNetwork.router.ppp[5].ppp packetDropIncorrectlyReceived:vector(packetBytes):starttime nan
scalar RouterPerfNetwork.router.ppp[5].ppp packetDropIncorrectlyReceived:vector(packetBytes):endtime nan
scalar RouterPerfNetwork.router.ppp[5].ppp packetDropInterfaceDown:vector(packetBytes):count 0
scalar RouterPerfNetwork.router.ppp[5].ppp packetDropInterfaceDown:vector(packetBytes):sum 0
scalar RouterPerfNetwork.router.ppp[5].ppp packetDropInterfaceDown:vector(packetBytes):sumweights 0
scalar RouterPerfNetwork.router.ppp[5].ppp packetDropInterfaceDown:vector(packetBytes):mean -nan
scalar RouterPerfNetwork.router.ppp[5].ppp packetDropInterfaceDown:vector(packetBytes):stddev nan
scalar RouterPerfNetwork.router.ppp[5].ppp packetDropInterfaceDown:vector(packetBytes):min inf
scalar RouterPerfNetwork.router.ppp[5].ppp packetDropInterfaceDown:vector(packetBytes):max -inf
scalar RouterPerfNetwork.router.ppp[5].ppp packetDropInterfaceDown:vector(packetBytes):starttime nan
scalar RouterPerfNetwork.router.ppp[5].ppp packetDropInterfaceDown:vector(packetBytes):endtime nan
scalar RouterPerfNetwork.router.ppp[5].ppp rcvdPkFromHl:vector(packetBytes):count 26
scalar RouterPerfNetwork.router.ppp[5].ppp rcvdPkFromHl:vector(packetBytes):sum 21320
scalar RouterPerfNetwork.router.ppp[5].ppp rcvdPkFromHl:vector(packetBytes):sumweights 26
scalar RouterPerfNetwork.router.ppp[5].ppp rcvdPkFromHl:vector(packetBytes):mean 820
scalar RouterPerfNetwork.router.ppp[5].ppp rcvdPkFromHl:vector(packetBytes):stddev 0
scalar RouterPerfNetwork.router.ppp[5].ppp rcvdPkFromHl:vector(packetBytes):min 820
scalar RouterPerfNetwork.router.ppp[5].ppp rcvdPkFromHl:vector(packetBytes):max 820
scalar RouterPerfNetwork.router.ppp[5].ppp rcvdPkFromHl:vector(packetBytes):starttime 0.006616
scalar RouterPerfNetwork.router.ppp[5].ppp rcvdPkFromHl:vector(packetBytes):endtime 0.172016
scalar RouterPerfNetwork.router.ppp[5].ppp passedUpPk:vector(packetBytes):count 0
scalar RouterPerfNetwork.router.ppp[5].ppp passedUpPk:vector(packetBytes):sum 0
scalar RouterPerfNetwork.router.ppp[5].ppp passedUpPk:vector(packetBytes):sumweights 0
scalar RouterPerfNetwork.router.ppp[5].ppp passedUpPk:vector(packetBytes):mean -nan
scalar RouterPerfNetwork.router.ppp[5].ppp passedUpPk:vector(packetBytes):stddev nan
scalar RouterPerfNetwork.router.ppp[5].ppp passedUpPk:vector(packetBytes):min inf
scalar RouterPerfNetwork.router.ppp[5].ppp passedUpPk:vector(packetBytes):max -inf
scalar RouterPerfNetwork.router.ppp[5].ppp passedUpPk:vector(packetBytes):starttime nan
scalar RouterPerfNetwork.router.ppp[5].ppp passedUpPk:vector(packetBytes):endtime nan
scalar RouterPerfNetwork.router.ppp[5] packetDropInterfaceDown:vector(packetBytes):count 0
scalar RouterPerfNetwork.router.ppp[5] packetDropInterfaceDown:vector(packetBytes):sum 0
scalar RouterPerfNetwork.router.ppp[5] packetDropInterfaceDown:vector(packetBytes):sumweights 0
scalar RouterPerfNetwork.router.ppp[5] packetDropInterfaceDown:vector(packetBytes):mean -nan
scalar RouterPerfNetwork.router.ppp[5] packetDropInterfaceDown:vector(packetBytes):stddev nan
scalar RouterPerfNetwork.router.ppp[5] packetDropInterfaceDown:vector(packetBytes):min inf
scalar RouterPerfNetwork.router.ppp[5] packetDropInterfaceDown:vector(packetBytes):max -inf
scalar RouterPerfNetwork.router.ppp[5] packetDropInterfaceDown:vector(packetBytes):starttime nan
scalar RouterPerfNetwork.router.ppp[5] packetDropInterfaceDown:vector(packetBytes):endtime nan
scalar RouterPerfNetwork.router.ppp[5] packetDropNoCarrier:vector(packetBytes):count 0
scalar RouterPerfNetwork.router.ppp[5] packetDropNoCarrier:vector(packetBytes):sum 0
scalar RouterPerfNetwork.router.ppp[5] packetDropNoCarrier:vector(packetBytes):sumweights 0
scalar RouterPerfNetwork.router.ppp[5] packetDropNoCarrier:vector(packetBytes):mean -nan
scalar RouterPerfNetwork.router.ppp[5] packetDropNoCarrier:vector(packetBytes):stddev nan
scalar RouterPerfNetwork.router.ppp[5] packetDropNoCarrier:vector(packetBytes):min inf
scalar RouterPerfNetwork.router.ppp[5] packetDropNoCarrier:vector(packetBytes):max -inf
scalar RouterPerfNetwork.router.ppp[5] packetDropNoCarrier:vector(packetBytes):starttime nan
scalar RouterPerfNetwork.router.ppp[5] packetDropNoCarrier:vector(packetBytes):endtime nan
scalar RouterPerfNetwork.router.ipv4.ip packetDropAddressResolutionFailed:vector(packetBytes):count 0
scalar RouterPerfNetwork.router.ipv4.ip packetDropAddressResolutionFailed:vector(packetBytes):sum 0
scalar RouterPerfNetwork.router.ipv4.ip packetDropAddressResolutionFailed:vector(packetBytes):sumweights 0
scalar RouterPerfNetwork.router.ipv4.ip packetDropAddressResolutionFailed:vector(packetBytes):mean -nan
scalar RouterPerfNetwork.router.ipv4.ip packetDropAddressResolutionFailed:vector(packetBytes):stddev nan
scalar RouterPerfNetwork.router.ipv4.ip packetDropAddressResolutionFailed:vector(packetBytes):min inf
scalar RouterPerfNetwork.router.ipv4.ip packetDropAddressResolutionFailed:vector(packetBytes):max -inf
scalar RouterPerfNetwork.router.ipv4.ip packetDropAddressResolutionFailed:vector(packetBytes):starttime nan
scalar RouterPerfNetwork.router.ipv4.ip packetDropAddressResolutionFailed:vector(packetBytes):endtime nan
scalar RouterPerfNetwork.router.ipv4.ip packetDropHopLimitReached:vector(packetBytes):count 0
scalar RouterPerfNetwork.router.ipv4.ip packetDropHopLimitReached:vector(packetBytes):sum 0
scalar RouterPerfNetwork.router.ipv4.ip packetDropHopLimitReached:vector(packetBytes):sumweights 0
scalar RouterPerfNetwork.router.ipv4.ip packetDropHopLimitReached:vector(packetBytes):mean -nan
scalar RouterPerfNetwork.router.ipv4.ip packetDropHopLimitReached:vector(packetBytes):stddev nan
scalar RouterPerfNetwork.router.ipv4.ip packetDropHopLimitReached:vector(packetBytes):min inf
scalar RouterPerfNetwork.router.ipv4.ip packetDropHopLimitReached:vector(packetBytes):max -inf
scalar RouterPerfNetwork.router.ipv4.ip packetDropHopLimitReached:vector(packetBytes):starttime nan
scalar RouterPerfNetwork.router.ipv4.ip packetDropHopLimitReached:vector(packetBytes):endtime nan
scalar RouterPerfNetwork.router.ipv4.ip packetDropForwardingDisabled:vector(packetBytes):count 0
scalar RouterPerfNetwork.router.ipv4.ip packetDropForwardingDisabled:vector(packetBytes):sum 0
scalar RouterPerfNetwork.router.ipv4.ip packetDropForwardingDisabled:vector(packetBytes):sumweights 0
scalar RouterPerfNetwork.router.ipv4.ip packetDropForwardingDisabled:vector(packetBytes):mean -nan
scalar RouterPerfNetwork.router.ipv4.ip packetDropForwardingDisabled:vector(packetBytes):stddev nan
scalar RouterPerfNetwork.router.ipv4.ip packetDropForwardingDisabled:vector(packetBytes):min inf
scalar RouterPerfNetwork.router.ipv4.ip packetDropForwardingDisabled:vector(packetBytes):max -inf
scalar RouterPerfNetwork.router.ipv4.ip packetDropForwardingDisabled:vector(packetBytes):starttime nan
scalar RouterPerfNetwork.router.ipv4.ip packetDropForwardingDisabled:vector(packetBytes):endtime nan
scalar RouterPerfNetwork.router.ipv4.ip packetDropLifetimeExpired:vector(packetBytes):count 0
scalar RouterPerfNetwork.router.ipv4.ip packetDropLifetimeExpired:vector(packetBytes):sum 0
scalar RouterPerfNetwork.router.ipv4.ip packetDropLifetimeExpired:vector(packetBytes):sumweights 0
scalar RouterPerfNetwork.router.ipv4.ip packetDropLifetimeExpired:vector(packetBytes):mean -nan
scalar RouterPerfNetwork.router.ipv4.ip packetDropLifetimeExpired:vector(packetBytes):stddev nan
scalar RouterPerfNetwork.router.ipv4.ip packetDropLifetimeExpired:vector(packetBytes):min inf
scalar RouterPerfNetwork.router.ipv4.ip packetDropLifetimeExpired:vector(packetBytes):max -inf
scalar RouterPerfNetwork.router.ipv4.ip packetDropLifetimeExpired:vector(packetBytes):starttime nan
scalar RouterPerfNetwork.router.ipv4.ip packetDropLifetimeExpired:vector(packetBytes):endtime nan
scalar RouterPerfNetwork.router.ipv4.ip packetDropNoInterfaceFound:vector(packetBytes):count 0
scalar RouterPerfNetwork.router.ipv4.ip packetDropNoInterfaceFound:vector(packetBytes):sum 0
scalar RouterPerfNetwork.router.ipv4.ip packetDropNoInterfaceFound:vector(packetBytes):sumweights 0
scalar RouterPerfNetwork.router.ipv4.ip packetDropNoInterfaceFound:vector(packetBytes):mean -nan
scalar RouterPerfNetwork.router.ipv4.ip packetDropNoInterfaceFound:vector(packetBytes):stddev nan
scalar RouterPerfNetwork.router.ipv4.ip packetDropNoInterfaceFound:vector(packetBytes):min inf
scalar RouterPerfNetwork.router.ipv4.ip packetDropNoInterfaceFound:vector(packetBytes):max -inf
scalar RouterPerfNetwork.router.ipv4.ip packetDropNoInterfaceFound:vector(packetBytes):starttime nan
scalar RouterPerfNetwork.router.ipv4.ip packetDropNoInterfaceFound:vector(packetBytes):endtime nan
scalar RouterPerfNetwork.router.ipv4.ip packetDropNoRouteFound:vector(packetBytes):count 0
scalar RouterPerfNetwork.router.ipv4.ip packetDropNoRouteFound:vector(packetBytes):sum 0
scalar RouterPerfNetwork.router.ipv4.ip packetDropNoRouteFound:vector(packetBytes):sumweights 0
scalar RouterPerfNetwork.router.ipv4.ip packetDropNoRouteFound:vector(packetBytes):mean -nan
scalar RouterPerfNetwork.router.ipv4.ip packetDropNoRouteFound:vector(packetBytes):stddev nan
scalar RouterPerfNetwork.router.ipv4.ip packetDropNoRouteFound:vector(packetBytes):min inf
scalar RouterPerfNetwork.router.ipv4.ip packetDropNoRouteFound:vector(packetBytes):max -inf
scalar RouterPerfNetwork.router.ipv4.ip packetDropNoRouteFound:vector(packetBytes):starttime nan
scalar RouterPerfNetwork.router.ipv4.ip packetDropNoRouteFound:vector(packetBytes):endtime nan
scalar RouterPerfNetwork.router.ipv4.ip packetDropUndefined:vector(packetBytes):count 0
scalar RouterPerfNetwork.router.ipv4.ip packetDropUndefined:vector(packetBytes):sum 0
scalar RouterPerfNetwork.router.ipv4.ip packetDropUndefined:vector(packetBytes):sumweights 0
scalar RouterPerfNetwork.router.ipv4.ip packetDropUndefined:vector(packetBytes):mean -nan
scalar RouterPerfNetwork.router.ipv4.ip packetDropUndefined:vector(packetBytes):stddev nan
scalar RouterPerfNetwork.router.ipv4.ip packetDropUndefined:vector(packetBytes):min inf
scalar RouterPerfNetwork.router.ipv4.ip packetDropUndefined:vector(packetBytes):max -inf
scalar RouterPerfNetwork.router.ipv4.ip packetDropUndefined:vector(packetBytes):starttime nan
scalar RouterPerfNetwork.router.ipv4.ip packetDropUndefined:vector(packetBytes):endtime nan
scalar RouterPerfNetwork.router.ipv4.arp arpRequestSent:vector(packetBytes):count 0
scalar RouterPerfNetwork.router.ipv4.arp arpRequestSent:vector(packetBytes):sum 0
scalar RouterPerfNetwork.router.ipv4.arp arpRequestSent:vector(packetBytes):sumweights 0
scalar RouterPerfNetwork.router.ipv4.arp arpRequestSent:vector(packetBytes):mean -nan
scalar RouterPerfNetwork.router.ipv4.arp arpRequestSent:vector(packetBytes):stddev nan
scalar RouterPerfNetwork.router.ipv4.arp arpRequestSent:vector(packetBytes):min inf
scalar RouterPerfNetwork.router.ipv4.arp arpRequestSent:vector(packetBytes):max -inf
scalar RouterPerfNetwork.router.ipv4.arp arpRequestSent:vector(packetBytes):starttime nan
scalar RouterPerfNetwork.router.ipv4.arp arpRequestSent:vector(packetBytes):endtime nan
scalar RouterPerfNetwork.router.ipv4.arp arpReplySent:vector(packetBytes):count 0
scalar RouterPerfNetwork.router.ipv4.arp arpReplySent:vector(packetBytes):sum 0
scalar RouterPerfNetwork.router.ipv4.arp arpReplySent:vector(packetBytes):sumweights 0
scalar RouterPerfNetwork.router.ipv4.arp arpReplySent:vector(packetBytes):mean -nan
scalar RouterPerfNetwork.router.ipv4.arp arpReplySent:vector(packetBytes):stddev nan
scalar RouterPerfNetwork.router.ipv4.arp arpReplySent:vector(packetBytes):min inf
scalar RouterPerfNetwork.router.ipv4.arp arpReplySent:vector(packetBytes):max -inf
scalar RouterPerfNetwork.router.ipv4.arp arpReplySent:vector(packetBytes):starttime nan
scalar RouterPerfNetwork.router.ipv4.arp arpReplySent:vector(packetBytes):endtime nan

