version 3
run Exp14-0-20251118-11:40:46-109525
attr configname Exp14
attr datetime 20251118-11:40:46
attr datetimef 20251118-114046
attr experiment Exp14
attr inifile omnetpp.ini
attr iterationvars ""
attr iterationvarsd ""
attr iterationvarsf ""
attr measurement ""
attr network DiffservNetwork
attr processid 109525
attr repetition 0
attr replication #0
attr resultdir results
attr runnumber 0
attr seedset 0
config **.param-recording false
config image-path /home/zoli/Projects/OMNET/inet/images
config output-scalar-file results/omnetpp.ini-Exp14-#0.sca
config output-scalar-precision 17
config output-vector-file results/omnetpp.ini-Exp14-#0.vec
config output-vector-precision 17
config record-eventlog false
config sim-time-limit 10s
config extends "Apps, Exp1, Exp1_cq"
config **.R?.ppp[*].queue.wrr.weights "\"7 6 5 4 0\""
config **.H{1..8}.numApps 2
config **.H{1..4}.app[0].typename UdpBasicBurst
config **.H1.app[*].destAddresses "\"H5\""
config **.H2.app[*].destAddresses "\"H6\""
config **.H3.app[*].destAddresses "\"H7\""
config **.H4.app[*].destAddresses "\"H8\""
config **.H{1..4}.app[0].chooseDestAddrMode "\"once\""
config **.H{1..4}.app[0].destPort 2000
config **.H{1..4}.app[0].startTime uniform(1s,2s)
config **.H{1..4}.app[0].stopTime 1200s
config **.H{1..4}.app[0].messageLength 172B
config **.H{1..4}.app[0].burstDuration exponential(0.352s)
config **.H{1..4}.app[0].sleepDuration exponential(0.650s)
config **.H{1..4}.app[0].sendInterval 20ms
config **.H{5..8}.app[0].typename UdpBasicBurst
config **.H{5..8}.app[0].localPort 2000
config **.H{5..8}.app[0].delayLimit 0ms
config **.H{5..8}.app[0].destAddresses "\"\""
config **.H{5..8}.app[0].chooseDestAddrMode "\"once\""
config **.H{5..8}.app[0].destPort 0
config **.H{5..8}.app[0].messageLength 0B
config **.H{5..8}.app[0].burstDuration 0s
config **.H{5..8}.app[0].sleepDuration 0s
config **.H{5..8}.app[0].sendInterval 0ms
config **.H{1..4}.app[1].typename UdpBasicApp
config **.H{1..4}.app[1].destPort 1000
config **.H{1..4}.app[1].startTime uniform(1s,2s)
config **.H{1..4}.app[1].stopTime 1200s
config **.H{1..4}.app[1].sendInterval 40ms
config **.H{1..4}.app[1].messageLength 500B
config **.H{5..8}.app[1].typename UdpSink
config **.H{5..8}.app[1].localPort 1000
config **.edgeDatarate 500kbps
config **.coreDatarate 500kbps
config **.R?.eth[*].ingressTC.typename TC1
config **.ingressTC.numClasses 4
config **.ingressTC.classifier.filters "xmldoc(\"filters.xml\", \"//experiment[@id='default']\")"
config **.ingressTC.marker.dscps "\"AF11 AF21 AF31 AF41 BE\""
config **.H{1..4}.app[*].packetSent.result-recording-modes count
config **.H{5..8}.app[*].packetReceived.result-recording-modes count
config **.H{5..8}.app[*].endToEndDelay.result-recording-modes vector
config **.app[*].packetSent.scalar-recording true
config **.app[*].packetReceived.scalar-recording true
config **.app[*].rcvdPk*.scalar-recording true
config **.app[*].endToEndDelay.scalar-recording true
config description "compound queue for Exp1"
config **.R2.ppp[2].**Queue.incomingPackets.result-recording-modes count
config **.R2.ppp[2].**Queue.droppedPackets*.result-recording-modes count
config **.R2.ppp[2].**Queue.queueLength.result-recording-modes timeavg
config **.R2.ppp[2].**Queue.queueingTime.result-recording-modes vector
config **.R2.ppp[2].**Queue.*.scalar-recording true
config **.R?.ppp[*].queue.typename DSQueue1
config **.R?.ppp[*].queue.packetCapacity -1
config **.R?.ppp[*].queue.*.packetCapacity 100
config **.afQueue.*.scalar-recording true
config network DiffservNetwork
config sim-time-limit 10s
config **.result-recording-modes ""
config **.scalar-recording false
config **.eth[*].queue.typename EthernetQosQueue
config **.queue.dataQueue.typename DropTailQueue
config **.queue.packetCapacity 100
config **.queue.dataQueue.packetCapacity 100

scalar DiffservNetwork.R2.ppp[2].queue.efQueue queueLength:timeavg 0
scalar DiffservNetwork.R2.ppp[2].queue.efQueue incomingPackets:count 0
scalar DiffservNetwork.R2.ppp[2].queue.efQueue droppedPacketsQueueOverflow:count 0
scalar DiffservNetwork.R2.ppp[2].queue.af1xQueue queueLength:timeavg 3.1253656592917975
scalar DiffservNetwork.R2.ppp[2].queue.af1xQueue incomingPackets:count 417
scalar DiffservNetwork.R2.ppp[2].queue.af1xQueue droppedPacketsQueueOverflow:count 0
scalar DiffservNetwork.R2.ppp[2].queue.af2xQueue queueLength:timeavg 11.858405649500707
scalar DiffservNetwork.R2.ppp[2].queue.af2xQueue incomingPackets:count 369
scalar DiffservNetwork.R2.ppp[2].queue.af2xQueue droppedPacketsQueueOverflow:count 0
scalar DiffservNetwork.R2.ppp[2].queue.af3xQueue queueLength:timeavg 4.4104021104294997
scalar DiffservNetwork.R2.ppp[2].queue.af3xQueue incomingPackets:count 286
scalar DiffservNetwork.R2.ppp[2].queue.af3xQueue droppedPacketsQueueOverflow:count 0
scalar DiffservNetwork.R2.ppp[2].queue.af4xQueue queueLength:timeavg 39.629775106227193
scalar DiffservNetwork.R2.ppp[2].queue.af4xQueue incomingPackets:count 367
scalar DiffservNetwork.R2.ppp[2].queue.af4xQueue droppedPacketsQueueOverflow:count 16
scalar DiffservNetwork.R2.ppp[2].queue.beQueue queueLength:timeavg 0
scalar DiffservNetwork.R2.ppp[2].queue.beQueue incomingPackets:count 0
scalar DiffservNetwork.R2.ppp[2].queue.beQueue droppedPacketsQueueOverflow:count 0
scalar DiffservNetwork.R2.ppp[2].queue.efQueue queueingTime:vector:count 0
scalar DiffservNetwork.R2.ppp[2].queue.efQueue queueingTime:vector:sum 0
scalar DiffservNetwork.R2.ppp[2].queue.efQueue queueingTime:vector:sumweights 0
scalar DiffservNetwork.R2.ppp[2].queue.efQueue queueingTime:vector:mean -nan
scalar DiffservNetwork.R2.ppp[2].queue.efQueue queueingTime:vector:stddev nan
scalar DiffservNetwork.R2.ppp[2].queue.efQueue queueingTime:vector:min inf
scalar DiffservNetwork.R2.ppp[2].queue.efQueue queueingTime:vector:max -inf
scalar DiffservNetwork.R2.ppp[2].queue.efQueue queueingTime:vector:starttime nan
scalar DiffservNetwork.R2.ppp[2].queue.efQueue queueingTime:vector:endtime nan
scalar DiffservNetwork.R2.ppp[2].queue.af1xQueue queueingTime:vector:count 417
scalar DiffservNetwork.R2.ppp[2].queue.af1xQueue queueingTime:vector:sum 31.253656592918009
scalar DiffservNetwork.R2.ppp[2].queue.af1xQueue queueingTime:vector:sumweights 417
scalar DiffservNetwork.R2.ppp[2].queue.af1xQueue queueingTime:vector:mean 0.074948816769587548
scalar DiffservNetwork.R2.ppp[2].queue.af1xQueue queueingTime:vector:stddev 0.083700777672557236
scalar DiffservNetwork.R2.ppp[2].queue.af1xQueue queueingTime:vector:min 0
scalar DiffservNetwork.R2.ppp[2].queue.af1xQueue queueingTime:vector:max 0.31772512770099998
scalar DiffservNetwork.R2.ppp[2].queue.af1xQueue queueingTime:vector:starttime 1.5541554023040003
scalar DiffservNetwork.R2.ppp[2].queue.af1xQueue queueingTime:vector:endtime 9.9660541640900018
scalar DiffservNetwork.R2.ppp[2].queue.af2xQueue queueingTime:vector:count 361
scalar DiffservNetwork.R2.ppp[2].queue.af2xQueue queueingTime:vector:sum 117.26301780772692
scalar DiffservNetwork.R2.ppp[2].queue.af2xQueue queueingTime:vector:sumweights 361
scalar DiffservNetwork.R2.ppp[2].queue.af2xQueue queueingTime:vector:mean 0.32482830417652886
scalar DiffservNetwork.R2.ppp[2].queue.af2xQueue queueingTime:vector:stddev 0.24436795484887797
scalar DiffservNetwork.R2.ppp[2].queue.af2xQueue queueingTime:vector:min 0
scalar DiffservNetwork.R2.ppp[2].queue.af2xQueue queueingTime:vector:max 0.78290912770099996
scalar DiffservNetwork.R2.ppp[2].queue.af2xQueue queueingTime:vector:starttime 1.7320090363890004
scalar DiffservNetwork.R2.ppp[2].queue.af2xQueue queueingTime:vector:endtime 9.9489341640900033
scalar DiffservNetwork.R2.ppp[2].queue.af3xQueue queueingTime:vector:count 286
scalar DiffservNetwork.R2.ppp[2].queue.af3xQueue queueingTime:vector:sum 44.104021104295029
scalar DiffservNetwork.R2.ppp[2].queue.af3xQueue queueingTime:vector:sumweights 286
scalar DiffservNetwork.R2.ppp[2].queue.af3xQueue queueingTime:vector:mean 0.15420986400103157
scalar DiffservNetwork.R2.ppp[2].queue.af3xQueue queueingTime:vector:stddev 0.14970672407612093
scalar DiffservNetwork.R2.ppp[2].queue.af3xQueue queueingTime:vector:min 0
scalar DiffservNetwork.R2.ppp[2].queue.af3xQueue queueingTime:vector:max 0.52102412424099998
scalar DiffservNetwork.R2.ppp[2].queue.af3xQueue queueingTime:vector:starttime 1.6120090363890003
scalar DiffservNetwork.R2.ppp[2].queue.af3xQueue queueingTime:vector:endtime 9.991734164090003
scalar DiffservNetwork.R2.ppp[2].queue.af4xQueue queueingTime:vector:count 260
scalar DiffservNetwork.R2.ppp[2].queue.af4xQueue queueingTime:vector:sum 246.38284879615696
scalar DiffservNetwork.R2.ppp[2].queue.af4xQueue queueingTime:vector:sumweights 260
scalar DiffservNetwork.R2.ppp[2].queue.af4xQueue queueingTime:vector:mean 0.94762634152368064
scalar DiffservNetwork.R2.ppp[2].queue.af4xQueue queueingTime:vector:stddev 0.71735000278744909
scalar DiffservNetwork.R2.ppp[2].queue.af4xQueue queueingTime:vector:min 0
scalar DiffservNetwork.R2.ppp[2].queue.af4xQueue queueingTime:vector:max 2.6095203672839999
scalar DiffservNetwork.R2.ppp[2].queue.af4xQueue queueingTime:vector:starttime 1.5502250773830002
scalar DiffservNetwork.R2.ppp[2].queue.af4xQueue queueingTime:vector:endtime 9.8600221640900028
scalar DiffservNetwork.R2.ppp[2].queue.beQueue queueingTime:vector:count 0
scalar DiffservNetwork.R2.ppp[2].queue.beQueue queueingTime:vector:sum 0
scalar DiffservNetwork.R2.ppp[2].queue.beQueue queueingTime:vector:sumweights 0
scalar DiffservNetwork.R2.ppp[2].queue.beQueue queueingTime:vector:mean -nan
scalar DiffservNetwork.R2.ppp[2].queue.beQueue queueingTime:vector:stddev nan
scalar DiffservNetwork.R2.ppp[2].queue.beQueue queueingTime:vector:min inf
scalar DiffservNetwork.R2.ppp[2].queue.beQueue queueingTime:vector:max -inf
scalar DiffservNetwork.R2.ppp[2].queue.beQueue queueingTime:vector:starttime nan
scalar DiffservNetwork.R2.ppp[2].queue.beQueue queueingTime:vector:endtime nan
scalar DiffservNetwork.H5.app[0] endToEndDelay:vector:count 207
scalar DiffservNetwork.H5.app[0] endToEndDelay:vector:sum 21.641035658595996
scalar DiffservNetwork.H5.app[0] endToEndDelay:vector:sumweights 207
scalar DiffservNetwork.H5.app[0] endToEndDelay:vector:mean 0.10454606598355554
scalar DiffservNetwork.H5.app[0] endToEndDelay:vector:stddev 0.084883803527538187
scalar DiffservNetwork.H5.app[0] endToEndDelay:vector:min 0.015972359999999998
scalar DiffservNetwork.H5.app[0] endToEndDelay:vector:max 0.338993142862
scalar DiffservNetwork.H5.app[0] endToEndDelay:vector:starttime 1.5648093023040004
scalar DiffservNetwork.H5.app[0] endToEndDelay:vector:endtime 9.611112344090003
scalar DiffservNetwork.H5.app[1] endToEndDelay:vector:count 210
scalar DiffservNetwork.H5.app[1] endToEndDelay:vector:sum 20.717203173993987
scalar DiffservNetwork.H5.app[1] endToEndDelay:vector:sumweights 210
scalar DiffservNetwork.H5.app[1] endToEndDelay:vector:mean 0.098653348447590411
scalar DiffservNetwork.H5.app[1] endToEndDelay:vector:stddev 0.081747946180684247
scalar DiffservNetwork.H5.app[1] endToEndDelay:vector:min 0.03176884
scalar DiffservNetwork.H5.app[1] endToEndDelay:vector:max 0.34424596770099997
scalar DiffservNetwork.H5.app[1] endToEndDelay:vector:starttime 1.6246134563890002
scalar DiffservNetwork.H5.app[1] endToEndDelay:vector:endtime 9.9872185840900034
scalar DiffservNetwork.H6.app[0] endToEndDelay:vector:count 165
scalar DiffservNetwork.H6.app[0] endToEndDelay:vector:sum 59.534045541201017
scalar DiffservNetwork.H6.app[0] endToEndDelay:vector:sumweights 165
scalar DiffservNetwork.H6.app[0] endToEndDelay:vector:mean 0.36081239721940012
scalar DiffservNetwork.H6.app[0] endToEndDelay:vector:stddev 0.23758540675321163
scalar DiffservNetwork.H6.app[0] endToEndDelay:vector:min 0.017847611393
scalar DiffservNetwork.H6.app[0] endToEndDelay:vector:max 0.81262518324099997
scalar DiffservNetwork.H6.app[0] endToEndDelay:vector:starttime 1.7512229363890004
scalar DiffservNetwork.H6.app[0] endToEndDelay:vector:endtime 9.507576344090003
scalar DiffservNetwork.H6.app[1] endToEndDelay:vector:count 196
scalar DiffservNetwork.H6.app[1] endToEndDelay:vector:sum 68.028240129196021
scalar DiffservNetwork.H6.app[1] endToEndDelay:vector:sumweights 196
scalar DiffservNetwork.H6.app[1] endToEndDelay:vector:mean 0.34708285780202053
scalar DiffservNetwork.H6.app[1] endToEndDelay:vector:stddev 0.2499848751689043
scalar DiffservNetwork.H6.app[1] endToEndDelay:vector:min 0.03176884
scalar DiffservNetwork.H6.app[1] endToEndDelay:vector:max 0.81384884000000002
scalar DiffservNetwork.H6.app[1] endToEndDelay:vector:starttime 1.8764854563890003
scalar DiffservNetwork.H6.app[1] endToEndDelay:vector:endtime 9.9700985840900032
scalar DiffservNetwork.H7.app[0] endToEndDelay:vector:count 82
scalar DiffservNetwork.H7.app[0] endToEndDelay:vector:sum 16.282370037235001
scalar DiffservNetwork.H7.app[0] endToEndDelay:vector:sumweights 82
scalar DiffservNetwork.H7.app[0] endToEndDelay:vector:mean 0.19856548825896342
scalar DiffservNetwork.H7.app[0] endToEndDelay:vector:stddev 0.15102633662566761
scalar DiffservNetwork.H7.app[0] endToEndDelay:vector:min 0.015972359999999998
scalar DiffservNetwork.H7.app[0] endToEndDelay:vector:max 0.49178639272699998
scalar DiffservNetwork.H7.app[0] endToEndDelay:vector:starttime 1.6226629363890004
scalar DiffservNetwork.H7.app[0] endToEndDelay:vector:endtime 7.8242003440900021
scalar DiffservNetwork.H7.app[1] endToEndDelay:vector:count 202
scalar DiffservNetwork.H7.app[1] endToEndDelay:vector:sum 36.023390265878007
scalar DiffservNetwork.H7.app[1] endToEndDelay:vector:sumweights 202
scalar DiffservNetwork.H7.app[1] endToEndDelay:vector:mean 0.1783336151776139
scalar DiffservNetwork.H7.app[1] endToEndDelay:vector:stddev 0.14905299600677474
scalar DiffservNetwork.H7.app[1] endToEndDelay:vector:min 0.031960964240999999
scalar DiffservNetwork.H7.app[1] endToEndDelay:vector:max 0.552792964241
scalar DiffservNetwork.H7.app[1] endToEndDelay:vector:starttime 1.8916694563890004
scalar DiffservNetwork.H7.app[1] endToEndDelay:vector:endtime 9.9957785840900026
scalar DiffservNetwork.H8.app[0] endToEndDelay:vector:count 124
scalar DiffservNetwork.H8.app[0] endToEndDelay:vector:sum 136.74866707869097
scalar DiffservNetwork.H8.app[0] endToEndDelay:vector:sumweights 124
scalar DiffservNetwork.H8.app[0] endToEndDelay:vector:mean 1.1028118312797659
scalar DiffservNetwork.H8.app[0] endToEndDelay:vector:stddev 0.7828917796123156
scalar DiffservNetwork.H8.app[0] endToEndDelay:vector:min 0.015972359999999998
scalar DiffservNetwork.H8.app[0] endToEndDelay:vector:max 2.6377967272839999
scalar DiffservNetwork.H8.app[0] endToEndDelay:vector:starttime 1.5608789773830003
scalar DiffservNetwork.H8.app[0] endToEndDelay:vector:endtime 9.8759123440900023
scalar DiffservNetwork.H8.app[1] endToEndDelay:vector:count 136
scalar DiffservNetwork.H8.app[1] endToEndDelay:vector:sum 116.804302658484
scalar DiffservNetwork.H8.app[1] endToEndDelay:vector:sumweights 136
scalar DiffservNetwork.H8.app[1] endToEndDelay:vector:mean 0.85885516660650008
scalar DiffservNetwork.H8.app[1] endToEndDelay:vector:stddev 0.63243893363199788
scalar DiffservNetwork.H8.app[1] endToEndDelay:vector:min 0.036721719132000001
scalar DiffservNetwork.H8.app[1] endToEndDelay:vector:max 2.625374846833
scalar DiffservNetwork.H8.app[1] endToEndDelay:vector:starttime 1.9035414563890003
scalar DiffservNetwork.H8.app[1] endToEndDelay:vector:endtime 9.8726265840900034

