version 3
run MldDemo-0-20260622-18:21:54-438392
attr configname MldDemo
attr datetime 20260622-18:21:54
attr datetimef 20260622-182154
attr experiment MldDemo
attr inifile omnetpp.ini
attr iterationvars ""
attr iterationvarsd ""
attr iterationvarsf ""
attr measurement ""
attr network MldDemo
attr processid 438392
attr repetition 0
attr replication #0
attr resultdir results
attr runnumber 0
attr seedset 0
config **.param-recording false
config image-path /home/andras/projects/inet/images
config output-scalar-file results/omnetpp.ini-MldDemo-#0.sca
config output-scalar-precision 17
config output-vector-file results/omnetpp.ini-MldDemo-#0.vec
config output-vector-precision 17
config record-eventlog false
config sim-time-limit 30s
config description "MLDv1 listener + querier demo"
config **.ipv6.hasMld true
config **.neighbourDiscovery.dupAddrDetectTransmits 0
config **.router.multicastForwarding true
config **.router.ipv6.mld.startupQueryInterval 2s
config **.router.ipv6.mld.queryInterval 100s
config **.router.ipv6.mld.queryResponseInterval 1s
config **.router.ipv6.mld.lastListenerQueryInterval 1s
config **.router.ipv6.mld.lastListenerQueryCount 2
config **.router.ipv6.mld.multicastListenerInterval 10s
config **.host1.numApps 1
config **.host1.app[0].typename UdpSink
config **.host1.app[0].localPort 1000
config **.host1.app[0].multicastGroup "\"ff0e::1\""
config **.host2.numApps 1
config **.host2.app[0].typename UdpSink
config **.host2.app[0].localPort 1000
config **.host2.app[0].multicastGroup "\"ff0e::1\""
config **.host2.app[0].stopTime 10s
config **.sender.numApps 1
config **.sender.app[0].typename UdpBasicApp
config **.sender.app[0].destAddresses "\"ff0e::1\""
config **.sender.app[0].destPort 1000
config **.sender.app[0].messageLength 64B
config **.sender.app[0].timeToLive 10
config **.sender.app[0].startTime 5s
config **.sender.app[0].sendInterval 2s
config **.sender.app[0].stopTime 25s
config **.eth[*].queue.typename EthernetQosQueue
config **.eth[*].queue.dataQueue.typename DropTailQueue
config **.eth[*].queue.dataQueue.packetCapacity 10
config network MldDemo
config sim-time-limit 30s

scalar MldDemo.router.ethernet pauseSent:count 0
scalar MldDemo.router.ethernet pauseSent:sum 0
scalar MldDemo.router.ethernet decapPk:count 23
scalar MldDemo.router.ethernet decapPk:sum(packetBytes) 1928
scalar MldDemo.router.ethernet encapPk:count 8
scalar MldDemo.router.ethernet encapPk:sum(packetBytes) 632
scalar MldDemo.router.lo[0].lo rcvdPkFromHl:count 0
scalar MldDemo.router.lo[0].lo rcvdPkFromHl:sum(packetBytes) 0
scalar MldDemo.router.lo[0].lo passedUpPk:count 0
scalar MldDemo.router.lo[0].lo passedUpPk:sum(packetBytes) 0
scalar MldDemo.router.lo[0] packetDropInterfaceDown:count 0
scalar MldDemo.router.lo[0] packetDropInterfaceDown:sum(packetBytes) 0
scalar MldDemo.router.lo[0] packetDropNoCarrier:count 0
scalar MldDemo.router.lo[0] packetDropNoCarrier:sum(packetBytes) 0
scalar MldDemo.router.eth[0].queue.classifier packets:count 8
scalar MldDemo.router.eth[0].queue.classifier packetLengths:sum 6208
scalar MldDemo.router.eth[0].queue.pauseQueue queueLength:last 0
scalar MldDemo.router.eth[0].queue.pauseQueue queueLength:max 0
scalar MldDemo.router.eth[0].queue.pauseQueue queueLength:timeavg 0
scalar MldDemo.router.eth[0].queue.pauseQueue queueBitLength:last 0
scalar MldDemo.router.eth[0].queue.pauseQueue queueBitLength:max 0
scalar MldDemo.router.eth[0].queue.pauseQueue queueBitLength:timeavg 0
scalar MldDemo.router.eth[0].queue.pauseQueue outgoingPackets:count 0
scalar MldDemo.router.eth[0].queue.pauseQueue outgoingPacketLengths:sum 0
scalar MldDemo.router.eth[0].queue.pauseQueue incomingPackets:count 0
scalar MldDemo.router.eth[0].queue.pauseQueue incomingPacketLengths:sum 0
scalar MldDemo.router.eth[0].queue.pauseQueue droppedPacketsQueueOverflow:count 0
scalar MldDemo.router.eth[0].queue.pauseQueue droppedPacketLengthsQueueOverflow:sum 0
scalar MldDemo.router.eth[0].queue.dataQueue queueLength:last 0
scalar MldDemo.router.eth[0].queue.dataQueue queueLength:max 1
scalar MldDemo.router.eth[0].queue.dataQueue queueLength:timeavg 2.72e-07
scalar MldDemo.router.eth[0].queue.dataQueue queueBitLength:last 0
scalar MldDemo.router.eth[0].queue.dataQueue queueBitLength:max 656
scalar MldDemo.router.eth[0].queue.dataQueue queueBitLength:timeavg 0.000178432
scalar MldDemo.router.eth[0].queue.dataQueue outgoingPackets:count 8
scalar MldDemo.router.eth[0].queue.dataQueue outgoingPacketLengths:sum 6208
scalar MldDemo.router.eth[0].queue.dataQueue incomingPackets:count 8
scalar MldDemo.router.eth[0].queue.dataQueue incomingPacketLengths:sum 6208
scalar MldDemo.router.eth[0].queue.dataQueue droppedPacketsQueueOverflow:count 0
scalar MldDemo.router.eth[0].queue.dataQueue droppedPacketLengthsQueueOverflow:sum 0
scalar MldDemo.router.eth[0].queue.scheduler packets:count 8
scalar MldDemo.router.eth[0].queue.scheduler packetLengths:sum 6208
scalar MldDemo.router.eth[0].queue queueLength:last -8
scalar MldDemo.router.eth[0].queue queueLength:max 0
scalar MldDemo.router.eth[0].queue queueLength:timeavg -7.310134011359399
scalar MldDemo.router.eth[0].queue queueBitLength:last -6208
scalar MldDemo.router.eth[0].queue queueBitLength:max 0
scalar MldDemo.router.eth[0].queue queueBitLength:timeavg -5712.014528387478
scalar MldDemo.router.eth[0].queue outgoingPackets:count 8
scalar MldDemo.router.eth[0].queue outgoingPacketLengths:sum 6208
scalar MldDemo.router.eth[0].queue incomingPackets:count 0
scalar MldDemo.router.eth[0].queue incomingPacketLengths:sum 0
scalar MldDemo.router.eth[0].queue droppedPacketsQueueOverflow:count 0
scalar MldDemo.router.eth[0].queue droppedPacketLengthsQueueOverflow:sum 0
scalar MldDemo.router.eth[0].mac "simulated time" 30
scalar MldDemo.router.eth[0].mac full-duplex 1
scalar MldDemo.router.eth[0].mac "frames/sec sent" 0.26666666666666666
scalar MldDemo.router.eth[0].mac "frames/sec rcvd" 0.7666666666666667
scalar MldDemo.router.eth[0].mac "bits/sec sent" 206.93333333333334
scalar MldDemo.router.eth[0].mac "bits/sec rcvd" 624.5333333333333
scalar MldDemo.router.eth[0].mac "rx channel idle (%)" 99.9993264
scalar MldDemo.router.eth[0].mac "rx channel utilization (%)" 0.0006736
scalar MldDemo.router.eth[0].mac rxPausePkUnits:count 0
scalar MldDemo.router.eth[0].mac rxPausePkUnits:sum 0
scalar MldDemo.router.eth[0].mac txPausePkUnits:count 0
scalar MldDemo.router.eth[0].mac txPausePkUnits:sum 0
scalar MldDemo.router.eth[0].mac rxPkOk:count 23
scalar MldDemo.router.eth[0].mac rxPkOk:sum(packetBytes) 2342
scalar MldDemo.router.eth[0].mac txPk:count 8
scalar MldDemo.router.eth[0].mac txPk:sum(packetBytes) 776
scalar MldDemo.router.eth[0].mac packetReceivedFromUpper:count 8
scalar MldDemo.router.eth[0].mac packetReceivedFromUpper:sum(packetBytes) 776
scalar MldDemo.router.eth[0].mac passedUpPk:count 23
scalar MldDemo.router.eth[0].mac passedUpPk:sum(packetBytes) 2342
scalar MldDemo.router.eth[0].mac packetDropIncorrectlyReceived:count 0
scalar MldDemo.router.eth[0].mac packetDropIncorrectlyReceived:sum(packetBytes) 0
scalar MldDemo.router.eth[0].mac packetDropInterfaceDown:count 0
scalar MldDemo.router.eth[0].mac packetDropInterfaceDown:sum(packetBytes) 0
scalar MldDemo.router.eth[0].mac packetDropNotAddressedToUs:count 0
scalar MldDemo.router.eth[0].mac packetDropNotAddressedToUs:sum(packetBytes) 0
scalar MldDemo.router.eth[0] packetDropInterfaceDown:count 0
scalar MldDemo.router.eth[0] packetDropInterfaceDown:sum(packetBytes) 0
scalar MldDemo.router.eth[0] packetDropNoCarrier:count 0
scalar MldDemo.router.eth[0] packetDropNoCarrier:sum(packetBytes) 0
scalar MldDemo.router.ipv6.neighbourDiscovery dadFailed:count 0
scalar MldDemo.router.ipv6.neighbourDiscovery dadCompleted:count 1
scalar MldDemo.router.ipv6.neighbourDiscovery startDad:count 0
scalar MldDemo.host1.ethernet pauseSent:count 0
scalar MldDemo.host1.ethernet pauseSent:sum 0
scalar MldDemo.host1.ethernet decapPk:count 26
scalar MldDemo.host1.ethernet decapPk:sum(packetBytes) 2248
scalar MldDemo.host1.ethernet encapPk:count 5
scalar MldDemo.host1.ethernet encapPk:sum(packetBytes) 312
scalar MldDemo.host1.lo[0].lo rcvdPkFromHl:count 0
scalar MldDemo.host1.lo[0].lo rcvdPkFromHl:sum(packetBytes) 0
scalar MldDemo.host1.lo[0].lo passedUpPk:count 0
scalar MldDemo.host1.lo[0].lo passedUpPk:sum(packetBytes) 0
scalar MldDemo.host1.lo[0] packetDropInterfaceDown:count 0
scalar MldDemo.host1.lo[0] packetDropInterfaceDown:sum(packetBytes) 0
scalar MldDemo.host1.lo[0] packetDropNoCarrier:count 0
scalar MldDemo.host1.lo[0] packetDropNoCarrier:sum(packetBytes) 0
scalar MldDemo.host1.eth[0].queue.classifier packets:count 5
scalar MldDemo.host1.eth[0].queue.classifier packetLengths:sum 3216
scalar MldDemo.host1.eth[0].queue.pauseQueue queueLength:last 0
scalar MldDemo.host1.eth[0].queue.pauseQueue queueLength:max 0
scalar MldDemo.host1.eth[0].queue.pauseQueue queueLength:timeavg 0
scalar MldDemo.host1.eth[0].queue.pauseQueue queueBitLength:last 0
scalar MldDemo.host1.eth[0].queue.pauseQueue queueBitLength:max 0
scalar MldDemo.host1.eth[0].queue.pauseQueue queueBitLength:timeavg 0
scalar MldDemo.host1.eth[0].queue.pauseQueue outgoingPackets:count 0
scalar MldDemo.host1.eth[0].queue.pauseQueue outgoingPacketLengths:sum 0
scalar MldDemo.host1.eth[0].queue.pauseQueue incomingPackets:count 0
scalar MldDemo.host1.eth[0].queue.pauseQueue incomingPacketLengths:sum 0
scalar MldDemo.host1.eth[0].queue.pauseQueue droppedPacketsQueueOverflow:count 0
scalar MldDemo.host1.eth[0].queue.pauseQueue droppedPacketLengthsQueueOverflow:sum 0
scalar MldDemo.host1.eth[0].queue.dataQueue queueLength:last 0
scalar MldDemo.host1.eth[0].queue.dataQueue queueLength:max 0
scalar MldDemo.host1.eth[0].queue.dataQueue queueLength:timeavg 0
scalar MldDemo.host1.eth[0].queue.dataQueue queueBitLength:last 0
scalar MldDemo.host1.eth[0].queue.dataQueue queueBitLength:max 0
scalar MldDemo.host1.eth[0].queue.dataQueue queueBitLength:timeavg 0
scalar MldDemo.host1.eth[0].queue.dataQueue outgoingPackets:count 5
scalar MldDemo.host1.eth[0].queue.dataQueue outgoingPacketLengths:sum 3216
scalar MldDemo.host1.eth[0].queue.dataQueue incomingPackets:count 5
scalar MldDemo.host1.eth[0].queue.dataQueue incomingPacketLengths:sum 3216
scalar MldDemo.host1.eth[0].queue.dataQueue droppedPacketsQueueOverflow:count 0
scalar MldDemo.host1.eth[0].queue.dataQueue droppedPacketLengthsQueueOverflow:sum 0
scalar MldDemo.host1.eth[0].queue.scheduler packets:count 5
scalar MldDemo.host1.eth[0].queue.scheduler packetLengths:sum 3216
scalar MldDemo.host1.eth[0].queue queueLength:last -5
scalar MldDemo.host1.eth[0].queue queueLength:max 0
scalar MldDemo.host1.eth[0].queue queueLength:timeavg -4.4486835784483
scalar MldDemo.host1.eth[0].queue queueBitLength:last -3216
scalar MldDemo.host1.eth[0].queue queueBitLength:max 0
scalar MldDemo.host1.eth[0].queue queueBitLength:timeavg -2856.4997779607597
scalar MldDemo.host1.eth[0].queue outgoingPackets:count 5
scalar MldDemo.host1.eth[0].queue outgoingPacketLengths:sum 3216
scalar MldDemo.host1.eth[0].queue incomingPackets:count 0
scalar MldDemo.host1.eth[0].queue incomingPacketLengths:sum 0
scalar MldDemo.host1.eth[0].queue droppedPacketsQueueOverflow:count 0
scalar MldDemo.host1.eth[0].queue droppedPacketLengthsQueueOverflow:sum 0
scalar MldDemo.host1.eth[0].mac "simulated time" 30
scalar MldDemo.host1.eth[0].mac full-duplex 1
scalar MldDemo.host1.eth[0].mac "frames/sec sent" 0.16666666666666666
scalar MldDemo.host1.eth[0].mac "frames/sec rcvd" 0.8666666666666667
scalar MldDemo.host1.eth[0].mac "bits/sec sent" 107.2
scalar MldDemo.host1.eth[0].mac "bits/sec rcvd" 724.2666666666667
scalar MldDemo.host1.eth[0].mac "rx channel idle (%)" 99.99922026666667
scalar MldDemo.host1.eth[0].mac "rx channel utilization (%)" 0.0007797333333333334
scalar MldDemo.host1.eth[0].mac rxPausePkUnits:count 0
scalar MldDemo.host1.eth[0].mac rxPausePkUnits:sum 0
scalar MldDemo.host1.eth[0].mac txPausePkUnits:count 0
scalar MldDemo.host1.eth[0].mac txPausePkUnits:sum 0
scalar MldDemo.host1.eth[0].mac rxPkOk:count 26
scalar MldDemo.host1.eth[0].mac rxPkOk:sum(packetBytes) 2716
scalar MldDemo.host1.eth[0].mac txPk:count 5
scalar MldDemo.host1.eth[0].mac txPk:sum(packetBytes) 402
scalar MldDemo.host1.eth[0].mac packetReceivedFromUpper:count 5
scalar MldDemo.host1.eth[0].mac packetReceivedFromUpper:sum(packetBytes) 402
scalar MldDemo.host1.eth[0].mac passedUpPk:count 26
scalar MldDemo.host1.eth[0].mac passedUpPk:sum(packetBytes) 2716
scalar MldDemo.host1.eth[0].mac packetDropIncorrectlyReceived:count 0
scalar MldDemo.host1.eth[0].mac packetDropIncorrectlyReceived:sum(packetBytes) 0
scalar MldDemo.host1.eth[0].mac packetDropInterfaceDown:count 0
scalar MldDemo.host1.eth[0].mac packetDropInterfaceDown:sum(packetBytes) 0
scalar MldDemo.host1.eth[0].mac packetDropNotAddressedToUs:count 0
scalar MldDemo.host1.eth[0].mac packetDropNotAddressedToUs:sum(packetBytes) 0
scalar MldDemo.host1.eth[0] packetDropInterfaceDown:count 0
scalar MldDemo.host1.eth[0] packetDropInterfaceDown:sum(packetBytes) 0
scalar MldDemo.host1.eth[0] packetDropNoCarrier:count 0
scalar MldDemo.host1.eth[0] packetDropNoCarrier:sum(packetBytes) 0
scalar MldDemo.host1.ipv6.neighbourDiscovery dadFailed:count 0
scalar MldDemo.host1.ipv6.neighbourDiscovery dadCompleted:count 2
scalar MldDemo.host1.ipv6.neighbourDiscovery startDad:count 1
scalar MldDemo.host1.udp packetReceived:count 10
scalar MldDemo.host1.udp packetReceived:sum(packetBytes) 720
scalar MldDemo.host1.udp packetSent:count 0
scalar MldDemo.host1.udp packetSent:sum(packetBytes) 0
scalar MldDemo.host1.udp passedUpPk:count 10
scalar MldDemo.host1.udp droppedPkWrongPort:count 0
scalar MldDemo.host1.udp droppedPkBadChecksum:count 0
scalar MldDemo.host1.app[0] packetReceived:count 10
scalar MldDemo.host1.app[0] packetReceived:sum(packetBytes) 640
scalar MldDemo.host2.ethernet pauseSent:count 0
scalar MldDemo.host2.ethernet pauseSent:sum 0
scalar MldDemo.host2.ethernet decapPk:count 25
scalar MldDemo.host2.ethernet decapPk:sum(packetBytes) 2184
scalar MldDemo.host2.ethernet encapPk:count 6
scalar MldDemo.host2.ethernet encapPk:sum(packetBytes) 376
scalar MldDemo.host2.lo[0].lo rcvdPkFromHl:count 0
scalar MldDemo.host2.lo[0].lo rcvdPkFromHl:sum(packetBytes) 0
scalar MldDemo.host2.lo[0].lo passedUpPk:count 0
scalar MldDemo.host2.lo[0].lo passedUpPk:sum(packetBytes) 0
scalar MldDemo.host2.lo[0] packetDropInterfaceDown:count 0
scalar MldDemo.host2.lo[0] packetDropInterfaceDown:sum(packetBytes) 0
scalar MldDemo.host2.lo[0] packetDropNoCarrier:count 0
scalar MldDemo.host2.lo[0] packetDropNoCarrier:sum(packetBytes) 0
scalar MldDemo.host2.eth[0].queue.classifier packets:count 6
scalar MldDemo.host2.eth[0].queue.classifier packetLengths:sum 3872
scalar MldDemo.host2.eth[0].queue.pauseQueue queueLength:last 0
scalar MldDemo.host2.eth[0].queue.pauseQueue queueLength:max 0
scalar MldDemo.host2.eth[0].queue.pauseQueue queueLength:timeavg 0
scalar MldDemo.host2.eth[0].queue.pauseQueue queueBitLength:last 0
scalar MldDemo.host2.eth[0].queue.pauseQueue queueBitLength:max 0
scalar MldDemo.host2.eth[0].queue.pauseQueue queueBitLength:timeavg 0
scalar MldDemo.host2.eth[0].queue.pauseQueue outgoingPackets:count 0
scalar MldDemo.host2.eth[0].queue.pauseQueue outgoingPacketLengths:sum 0
scalar MldDemo.host2.eth[0].queue.pauseQueue incomingPackets:count 0
scalar MldDemo.host2.eth[0].queue.pauseQueue incomingPacketLengths:sum 0
scalar MldDemo.host2.eth[0].queue.pauseQueue droppedPacketsQueueOverflow:count 0
scalar MldDemo.host2.eth[0].queue.pauseQueue droppedPacketLengthsQueueOverflow:sum 0
scalar MldDemo.host2.eth[0].queue.dataQueue queueLength:last 0
scalar MldDemo.host2.eth[0].queue.dataQueue queueLength:max 1
scalar MldDemo.host2.eth[0].queue.dataQueue queueLength:timeavg 2.72e-07
scalar MldDemo.host2.eth[0].queue.dataQueue queueBitLength:last 0
scalar MldDemo.host2.eth[0].queue.dataQueue queueBitLength:max 656
scalar MldDemo.host2.eth[0].queue.dataQueue queueBitLength:timeavg 0.000178432
scalar MldDemo.host2.eth[0].queue.dataQueue outgoingPackets:count 6
scalar MldDemo.host2.eth[0].queue.dataQueue outgoingPacketLengths:sum 3872
scalar MldDemo.host2.eth[0].queue.dataQueue incomingPackets:count 6
scalar MldDemo.host2.eth[0].queue.dataQueue incomingPacketLengths:sum 3872
scalar MldDemo.host2.eth[0].queue.dataQueue droppedPacketsQueueOverflow:count 0
scalar MldDemo.host2.eth[0].queue.dataQueue droppedPacketLengthsQueueOverflow:sum 0
scalar MldDemo.host2.eth[0].queue.scheduler packets:count 6
scalar MldDemo.host2.eth[0].queue.scheduler packetLengths:sum 3872
scalar MldDemo.host2.eth[0].queue queueLength:last -6
scalar MldDemo.host2.eth[0].queue queueLength:max 0
scalar MldDemo.host2.eth[0].queue queueLength:timeavg -5.4371653082797
scalar MldDemo.host2.eth[0].queue queueBitLength:last -3872
scalar MldDemo.host2.eth[0].queue queueBitLength:max 0
scalar MldDemo.host2.eth[0].queue queueBitLength:timeavg -3505.2129060984507
scalar MldDemo.host2.eth[0].queue outgoingPackets:count 6
scalar MldDemo.host2.eth[0].queue outgoingPacketLengths:sum 3872
scalar MldDemo.host2.eth[0].queue incomingPackets:count 0
scalar MldDemo.host2.eth[0].queue incomingPacketLengths:sum 0
scalar MldDemo.host2.eth[0].queue droppedPacketsQueueOverflow:count 0
scalar MldDemo.host2.eth[0].queue droppedPacketLengthsQueueOverflow:sum 0
scalar MldDemo.host2.eth[0].mac "simulated time" 30
scalar MldDemo.host2.eth[0].mac full-duplex 1
scalar MldDemo.host2.eth[0].mac "frames/sec sent" 0.2
scalar MldDemo.host2.eth[0].mac "frames/sec rcvd" 0.8333333333333334
scalar MldDemo.host2.eth[0].mac "bits/sec sent" 129.06666666666666
scalar MldDemo.host2.eth[0].mac "bits/sec rcvd" 702.4
scalar MldDemo.host2.eth[0].mac "rx channel idle (%)" 99.99924426666666
scalar MldDemo.host2.eth[0].mac "rx channel utilization (%)" 0.0007557333333333333
scalar MldDemo.host2.eth[0].mac rxPausePkUnits:count 0
scalar MldDemo.host2.eth[0].mac rxPausePkUnits:sum 0
scalar MldDemo.host2.eth[0].mac txPausePkUnits:count 0
scalar MldDemo.host2.eth[0].mac txPausePkUnits:sum 0
scalar MldDemo.host2.eth[0].mac rxPkOk:count 25
scalar MldDemo.host2.eth[0].mac rxPkOk:sum(packetBytes) 2634
scalar MldDemo.host2.eth[0].mac txPk:count 6
scalar MldDemo.host2.eth[0].mac txPk:sum(packetBytes) 484
scalar MldDemo.host2.eth[0].mac packetReceivedFromUpper:count 6
scalar MldDemo.host2.eth[0].mac packetReceivedFromUpper:sum(packetBytes) 484
scalar MldDemo.host2.eth[0].mac passedUpPk:count 25
scalar MldDemo.host2.eth[0].mac passedUpPk:sum(packetBytes) 2634
scalar MldDemo.host2.eth[0].mac packetDropIncorrectlyReceived:count 0
scalar MldDemo.host2.eth[0].mac packetDropIncorrectlyReceived:sum(packetBytes) 0
scalar MldDemo.host2.eth[0].mac packetDropInterfaceDown:count 0
scalar MldDemo.host2.eth[0].mac packetDropInterfaceDown:sum(packetBytes) 0
scalar MldDemo.host2.eth[0].mac packetDropNotAddressedToUs:count 0
scalar MldDemo.host2.eth[0].mac packetDropNotAddressedToUs:sum(packetBytes) 0
scalar MldDemo.host2.eth[0] packetDropInterfaceDown:count 0
scalar MldDemo.host2.eth[0] packetDropInterfaceDown:sum(packetBytes) 0
scalar MldDemo.host2.eth[0] packetDropNoCarrier:count 0
scalar MldDemo.host2.eth[0] packetDropNoCarrier:sum(packetBytes) 0
scalar MldDemo.host2.ipv6.neighbourDiscovery dadFailed:count 0
scalar MldDemo.host2.ipv6.neighbourDiscovery dadCompleted:count 2
scalar MldDemo.host2.ipv6.neighbourDiscovery startDad:count 1
scalar MldDemo.host2.udp packetReceived:count 3
scalar MldDemo.host2.udp packetReceived:sum(packetBytes) 216
scalar MldDemo.host2.udp packetSent:count 0
scalar MldDemo.host2.udp packetSent:sum(packetBytes) 0
scalar MldDemo.host2.udp passedUpPk:count 3
scalar MldDemo.host2.udp droppedPkWrongPort:count 0
scalar MldDemo.host2.udp droppedPkBadChecksum:count 0
scalar MldDemo.host2.app[0] packetReceived:count 3
scalar MldDemo.host2.app[0] packetReceived:sum(packetBytes) 192
scalar MldDemo.sender.ethernet pauseSent:count 0
scalar MldDemo.sender.ethernet pauseSent:sum 0
scalar MldDemo.sender.ethernet decapPk:count 19
scalar MldDemo.sender.ethernet decapPk:sum(packetBytes) 1320
scalar MldDemo.sender.ethernet encapPk:count 12
scalar MldDemo.sender.ethernet encapPk:sum(packetBytes) 1240
scalar MldDemo.sender.lo[0].lo rcvdPkFromHl:count 0
scalar MldDemo.sender.lo[0].lo rcvdPkFromHl:sum(packetBytes) 0
scalar MldDemo.sender.lo[0].lo passedUpPk:count 0
scalar MldDemo.sender.lo[0].lo passedUpPk:sum(packetBytes) 0
scalar MldDemo.sender.lo[0] packetDropInterfaceDown:count 0
scalar MldDemo.sender.lo[0] packetDropInterfaceDown:sum(packetBytes) 0
scalar MldDemo.sender.lo[0] packetDropNoCarrier:count 0
scalar MldDemo.sender.lo[0] packetDropNoCarrier:sum(packetBytes) 0
scalar MldDemo.sender.eth[0].queue.classifier packets:count 12
scalar MldDemo.sender.eth[0].queue.classifier packetLengths:sum 11648
scalar MldDemo.sender.eth[0].queue.pauseQueue queueLength:last 0
scalar MldDemo.sender.eth[0].queue.pauseQueue queueLength:max 0
scalar MldDemo.sender.eth[0].queue.pauseQueue queueLength:timeavg 0
scalar MldDemo.sender.eth[0].queue.pauseQueue queueBitLength:last 0
scalar MldDemo.sender.eth[0].queue.pauseQueue queueBitLength:max 0
scalar MldDemo.sender.eth[0].queue.pauseQueue queueBitLength:timeavg 0
scalar MldDemo.sender.eth[0].queue.pauseQueue outgoingPackets:count 0
scalar MldDemo.sender.eth[0].queue.pauseQueue outgoingPacketLengths:sum 0
scalar MldDemo.sender.eth[0].queue.pauseQueue incomingPackets:count 0
scalar MldDemo.sender.eth[0].queue.pauseQueue incomingPacketLengths:sum 0
scalar MldDemo.sender.eth[0].queue.pauseQueue droppedPacketsQueueOverflow:count 0
scalar MldDemo.sender.eth[0].queue.pauseQueue droppedPacketLengthsQueueOverflow:sum 0
scalar MldDemo.sender.eth[0].queue.dataQueue queueLength:last 0
scalar MldDemo.sender.eth[0].queue.dataQueue queueLength:max 0
scalar MldDemo.sender.eth[0].queue.dataQueue queueLength:timeavg 0
scalar MldDemo.sender.eth[0].queue.dataQueue queueBitLength:last 0
scalar MldDemo.sender.eth[0].queue.dataQueue queueBitLength:max 0
scalar MldDemo.sender.eth[0].queue.dataQueue queueBitLength:timeavg 0
scalar MldDemo.sender.eth[0].queue.dataQueue outgoingPackets:count 12
scalar MldDemo.sender.eth[0].queue.dataQueue outgoingPacketLengths:sum 11648
scalar MldDemo.sender.eth[0].queue.dataQueue incomingPackets:count 12
scalar MldDemo.sender.eth[0].queue.dataQueue incomingPacketLengths:sum 11648
scalar MldDemo.sender.eth[0].queue.dataQueue droppedPacketsQueueOverflow:count 0
scalar MldDemo.sender.eth[0].queue.dataQueue droppedPacketLengthsQueueOverflow:sum 0
scalar MldDemo.sender.eth[0].queue.scheduler packets:count 12
scalar MldDemo.sender.eth[0].queue.scheduler packetLengths:sum 11648
scalar MldDemo.sender.eth[0].queue queueLength:last -12
scalar MldDemo.sender.eth[0].queue queueLength:max 0
scalar MldDemo.sender.eth[0].queue queueLength:timeavg -7.2633922002648665
scalar MldDemo.sender.eth[0].queue queueBitLength:last -11648
scalar MldDemo.sender.eth[0].queue queueBitLength:max 0
scalar MldDemo.sender.eth[0].queue queueBitLength:timeavg -6750.601127763449
scalar MldDemo.sender.eth[0].queue outgoingPackets:count 12
scalar MldDemo.sender.eth[0].queue outgoingPacketLengths:sum 11648
scalar MldDemo.sender.eth[0].queue incomingPackets:count 0
scalar MldDemo.sender.eth[0].queue incomingPacketLengths:sum 0
scalar MldDemo.sender.eth[0].queue droppedPacketsQueueOverflow:count 0
scalar MldDemo.sender.eth[0].queue droppedPacketLengthsQueueOverflow:sum 0
scalar MldDemo.sender.eth[0].mac "simulated time" 30
scalar MldDemo.sender.eth[0].mac full-duplex 1
scalar MldDemo.sender.eth[0].mac "frames/sec sent" 0.4
scalar MldDemo.sender.eth[0].mac "frames/sec rcvd" 0.6333333333333333
scalar MldDemo.sender.eth[0].mac "bits/sec sent" 388.26666666666665
scalar MldDemo.sender.eth[0].mac "bits/sec rcvd" 443.2
scalar MldDemo.sender.eth[0].mac "rx channel idle (%)" 99.99951626666666
scalar MldDemo.sender.eth[0].mac "rx channel utilization (%)" 0.00048373333333333335
scalar MldDemo.sender.eth[0].mac rxPausePkUnits:count 0
scalar MldDemo.sender.eth[0].mac rxPausePkUnits:sum 0
scalar MldDemo.sender.eth[0].mac txPausePkUnits:count 0
scalar MldDemo.sender.eth[0].mac txPausePkUnits:sum 0
scalar MldDemo.sender.eth[0].mac rxPkOk:count 19
scalar MldDemo.sender.eth[0].mac rxPkOk:sum(packetBytes) 1662
scalar MldDemo.sender.eth[0].mac txPk:count 12
scalar MldDemo.sender.eth[0].mac txPk:sum(packetBytes) 1456
scalar MldDemo.sender.eth[0].mac packetReceivedFromUpper:count 12
scalar MldDemo.sender.eth[0].mac packetReceivedFromUpper:sum(packetBytes) 1456
scalar MldDemo.sender.eth[0].mac passedUpPk:count 19
scalar MldDemo.sender.eth[0].mac passedUpPk:sum(packetBytes) 1662
scalar MldDemo.sender.eth[0].mac packetDropIncorrectlyReceived:count 0
scalar MldDemo.sender.eth[0].mac packetDropIncorrectlyReceived:sum(packetBytes) 0
scalar MldDemo.sender.eth[0].mac packetDropInterfaceDown:count 0
scalar MldDemo.sender.eth[0].mac packetDropInterfaceDown:sum(packetBytes) 0
scalar MldDemo.sender.eth[0].mac packetDropNotAddressedToUs:count 0
scalar MldDemo.sender.eth[0].mac packetDropNotAddressedToUs:sum(packetBytes) 0
scalar MldDemo.sender.eth[0] packetDropInterfaceDown:count 0
scalar MldDemo.sender.eth[0] packetDropInterfaceDown:sum(packetBytes) 0
scalar MldDemo.sender.eth[0] packetDropNoCarrier:count 0
scalar MldDemo.sender.eth[0] packetDropNoCarrier:sum(packetBytes) 0
scalar MldDemo.sender.ipv6.neighbourDiscovery dadFailed:count 0
scalar MldDemo.sender.ipv6.neighbourDiscovery dadCompleted:count 2
scalar MldDemo.sender.ipv6.neighbourDiscovery startDad:count 1
scalar MldDemo.sender.udp packetReceived:count 0
scalar MldDemo.sender.udp packetReceived:sum(packetBytes) 0
scalar MldDemo.sender.udp packetSent:count 10
scalar MldDemo.sender.udp packetSent:sum(packetBytes) 720
scalar MldDemo.sender.udp passedUpPk:count 0
scalar MldDemo.sender.udp droppedPkWrongPort:count 0
scalar MldDemo.sender.udp droppedPkBadChecksum:count 0
scalar MldDemo.sender.app[0] "packets sent" 10
scalar MldDemo.sender.app[0] "packets received" 0
scalar MldDemo.sender.app[0] packetReceived:count 0
scalar MldDemo.sender.app[0] packetReceived:sum(packetBytes) 0
scalar MldDemo.sender.app[0] packetSent:count 10
scalar MldDemo.sender.app[0] packetSent:sum(packetBytes) 640
scalar MldDemo.hub packetReceived:count 31
scalar MldDemo.hub packetReceived:sum(packetBytes) 3366
scalar MldDemo.sender.app[0] rcvdPkLifetime:stats:count 0
scalar MldDemo.sender.app[0] rcvdPkLifetime:stats:sumweights 0
scalar MldDemo.sender.app[0] rcvdPkLifetime:stats:mean nan
scalar MldDemo.sender.app[0] rcvdPkLifetime:stats:stddev nan
scalar MldDemo.sender.app[0] rcvdPkLifetime:stats:min nan
scalar MldDemo.sender.app[0] rcvdPkLifetime:stats:max nan
scalar MldDemo.sender.app[0] rcvdPkLifetime:stats:numbins 0
scalar MldDemo.router.eth[0].queue.classifier packetLengths:histogram:count 8
scalar MldDemo.router.eth[0].queue.classifier packetLengths:histogram:sumweights 8
scalar MldDemo.router.eth[0].queue.classifier packetLengths:histogram:mean 776
scalar MldDemo.router.eth[0].queue.classifier packetLengths:histogram:stddev 165.61573424216502
scalar MldDemo.router.eth[0].queue.classifier packetLengths:histogram:min 656
scalar MldDemo.router.eth[0].queue.classifier packetLengths:histogram:max 976
scalar MldDemo.router.eth[0].queue.classifier packetLengths:histogram:numbins 49
scalar MldDemo.router.eth[0].queue.classifier packetLengths:histogram:rangemin 570
scalar MldDemo.router.eth[0].queue.classifier packetLengths:histogram:rangemax 1060
scalar MldDemo.router.eth[0].queue.classifier packetLengths:histogram:underflows 0
scalar MldDemo.router.eth[0].queue.classifier packetLengths:histogram:overflows 0
scalar MldDemo.router.eth[0].queue.pauseQueue queueingTime:histogram:count 0
scalar MldDemo.router.eth[0].queue.pauseQueue queueingTime:histogram:sumweights 0
scalar MldDemo.router.eth[0].queue.pauseQueue queueingTime:histogram:mean nan
scalar MldDemo.router.eth[0].queue.pauseQueue queueingTime:histogram:stddev nan
scalar MldDemo.router.eth[0].queue.pauseQueue queueingTime:histogram:min nan
scalar MldDemo.router.eth[0].queue.pauseQueue queueingTime:histogram:max nan
scalar MldDemo.router.eth[0].queue.pauseQueue queueingTime:histogram:numbins 1
scalar MldDemo.router.eth[0].queue.pauseQueue queueingTime:histogram:rangemin 0
scalar MldDemo.router.eth[0].queue.pauseQueue queueingTime:histogram:rangemax 1
scalar MldDemo.router.eth[0].queue.pauseQueue queueingTime:histogram:underflows 0
scalar MldDemo.router.eth[0].queue.pauseQueue queueingTime:histogram:overflows 0
scalar MldDemo.router.eth[0].queue.pauseQueue outgoingPacketLengths:histogram:count 0
scalar MldDemo.router.eth[0].queue.pauseQueue outgoingPacketLengths:histogram:sumweights 0
scalar MldDemo.router.eth[0].queue.pauseQueue outgoingPacketLengths:histogram:mean nan
scalar MldDemo.router.eth[0].queue.pauseQueue outgoingPacketLengths:histogram:stddev nan
scalar MldDemo.router.eth[0].queue.pauseQueue outgoingPacketLengths:histogram:min nan
scalar MldDemo.router.eth[0].queue.pauseQueue outgoingPacketLengths:histogram:max nan
scalar MldDemo.router.eth[0].queue.pauseQueue outgoingPacketLengths:histogram:numbins 1
scalar MldDemo.router.eth[0].queue.pauseQueue outgoingPacketLengths:histogram:rangemin 0
scalar MldDemo.router.eth[0].queue.pauseQueue outgoingPacketLengths:histogram:rangemax 1
scalar MldDemo.router.eth[0].queue.pauseQueue outgoingPacketLengths:histogram:underflows 0
scalar MldDemo.router.eth[0].queue.pauseQueue outgoingPacketLengths:histogram:overflows 0
scalar MldDemo.router.eth[0].queue.pauseQueue flowQueueingTime:histogram:count 0
scalar MldDemo.router.eth[0].queue.pauseQueue flowQueueingTime:histogram:sumweights 0
scalar MldDemo.router.eth[0].queue.pauseQueue flowQueueingTime:histogram:mean nan
scalar MldDemo.router.eth[0].queue.pauseQueue flowQueueingTime:histogram:stddev nan
scalar MldDemo.router.eth[0].queue.pauseQueue flowQueueingTime:histogram:min nan
scalar MldDemo.router.eth[0].queue.pauseQueue flowQueueingTime:histogram:max nan
scalar MldDemo.router.eth[0].queue.pauseQueue flowQueueingTime:histogram:numbins 1
scalar MldDemo.router.eth[0].queue.pauseQueue flowQueueingTime:histogram:rangemin 0
scalar MldDemo.router.eth[0].queue.pauseQueue flowQueueingTime:histogram:rangemax 1
scalar MldDemo.router.eth[0].queue.pauseQueue flowQueueingTime:histogram:underflows 0
scalar MldDemo.router.eth[0].queue.pauseQueue flowQueueingTime:histogram:overflows 0
scalar MldDemo.router.eth[0].queue.pauseQueue incomingPacketLengths:histogram:count 0
scalar MldDemo.router.eth[0].queue.pauseQueue incomingPacketLengths:histogram:sumweights 0
scalar MldDemo.router.eth[0].queue.pauseQueue incomingPacketLengths:histogram:mean nan
scalar MldDemo.router.eth[0].queue.pauseQueue incomingPacketLengths:histogram:stddev nan
scalar MldDemo.router.eth[0].queue.pauseQueue incomingPacketLengths:histogram:min nan
scalar MldDemo.router.eth[0].queue.pauseQueue incomingPacketLengths:histogram:max nan
scalar MldDemo.router.eth[0].queue.pauseQueue incomingPacketLengths:histogram:numbins 1
scalar MldDemo.router.eth[0].queue.pauseQueue incomingPacketLengths:histogram:rangemin 0
scalar MldDemo.router.eth[0].queue.pauseQueue incomingPacketLengths:histogram:rangemax 1
scalar MldDemo.router.eth[0].queue.pauseQueue incomingPacketLengths:histogram:underflows 0
scalar MldDemo.router.eth[0].queue.pauseQueue incomingPacketLengths:histogram:overflows 0
scalar MldDemo.router.eth[0].queue.dataQueue queueingTime:histogram:count 8
scalar MldDemo.router.eth[0].queue.dataQueue queueingTime:histogram:sumweights 8
scalar MldDemo.router.eth[0].queue.dataQueue queueingTime:histogram:mean 1.02e-06
scalar MldDemo.router.eth[0].queue.dataQueue queueingTime:histogram:stddev 2.884995667241114e-06
scalar MldDemo.router.eth[0].queue.dataQueue queueingTime:histogram:min 0
scalar MldDemo.router.eth[0].queue.dataQueue queueingTime:histogram:max 8.16e-06
scalar MldDemo.router.eth[0].queue.dataQueue queueingTime:histogram:numbins 51
scalar MldDemo.router.eth[0].queue.dataQueue queueingTime:histogram:rangemin 0
scalar MldDemo.router.eth[0].queue.dataQueue queueingTime:histogram:rangemax 1.0200000000000002e-05
scalar MldDemo.router.eth[0].queue.dataQueue queueingTime:histogram:underflows 0
scalar MldDemo.router.eth[0].queue.dataQueue queueingTime:histogram:overflows 0
scalar MldDemo.router.eth[0].queue.dataQueue outgoingPacketLengths:histogram:count 8
scalar MldDemo.router.eth[0].queue.dataQueue outgoingPacketLengths:histogram:sumweights 8
scalar MldDemo.router.eth[0].queue.dataQueue outgoingPacketLengths:histogram:mean 776
scalar MldDemo.router.eth[0].queue.dataQueue outgoingPacketLengths:histogram:stddev 165.61573424216502
scalar MldDemo.router.eth[0].queue.dataQueue outgoingPacketLengths:histogram:min 656
scalar MldDemo.router.eth[0].queue.dataQueue outgoingPacketLengths:histogram:max 976
scalar MldDemo.router.eth[0].queue.dataQueue outgoingPacketLengths:histogram:numbins 49
scalar MldDemo.router.eth[0].queue.dataQueue outgoingPacketLengths:histogram:rangemin 570
scalar MldDemo.router.eth[0].queue.dataQueue outgoingPacketLengths:histogram:rangemax 1060
scalar MldDemo.router.eth[0].queue.dataQueue outgoingPacketLengths:histogram:underflows 0
scalar MldDemo.router.eth[0].queue.dataQueue outgoingPacketLengths:histogram:overflows 0
scalar MldDemo.router.eth[0].queue.dataQueue flowQueueingTime:histogram:count 0
scalar MldDemo.router.eth[0].queue.dataQueue flowQueueingTime:histogram:sumweights 0
scalar MldDemo.router.eth[0].queue.dataQueue flowQueueingTime:histogram:mean nan
scalar MldDemo.router.eth[0].queue.dataQueue flowQueueingTime:histogram:stddev nan
scalar MldDemo.router.eth[0].queue.dataQueue flowQueueingTime:histogram:min nan
scalar MldDemo.router.eth[0].queue.dataQueue flowQueueingTime:histogram:max nan
scalar MldDemo.router.eth[0].queue.dataQueue flowQueueingTime:histogram:numbins 1
scalar MldDemo.router.eth[0].queue.dataQueue flowQueueingTime:histogram:rangemin 0
scalar MldDemo.router.eth[0].queue.dataQueue flowQueueingTime:histogram:rangemax 1
scalar MldDemo.router.eth[0].queue.dataQueue flowQueueingTime:histogram:underflows 0
scalar MldDemo.router.eth[0].queue.dataQueue flowQueueingTime:histogram:overflows 0
scalar MldDemo.router.eth[0].queue.dataQueue incomingPacketLengths:histogram:count 8
scalar MldDemo.router.eth[0].queue.dataQueue incomingPacketLengths:histogram:sumweights 8
scalar MldDemo.router.eth[0].queue.dataQueue incomingPacketLengths:histogram:mean 776
scalar MldDemo.router.eth[0].queue.dataQueue incomingPacketLengths:histogram:stddev 165.61573424216502
scalar MldDemo.router.eth[0].queue.dataQueue incomingPacketLengths:histogram:min 656
scalar MldDemo.router.eth[0].queue.dataQueue incomingPacketLengths:histogram:max 976
scalar MldDemo.router.eth[0].queue.dataQueue incomingPacketLengths:histogram:numbins 49
scalar MldDemo.router.eth[0].queue.dataQueue incomingPacketLengths:histogram:rangemin 570
scalar MldDemo.router.eth[0].queue.dataQueue incomingPacketLengths:histogram:rangemax 1060
scalar MldDemo.router.eth[0].queue.dataQueue incomingPacketLengths:histogram:underflows 0
scalar MldDemo.router.eth[0].queue.dataQueue incomingPacketLengths:histogram:overflows 0
scalar MldDemo.router.eth[0].queue.scheduler packetLengths:histogram:count 8
scalar MldDemo.router.eth[0].queue.scheduler packetLengths:histogram:sumweights 8
scalar MldDemo.router.eth[0].queue.scheduler packetLengths:histogram:mean 776
scalar MldDemo.router.eth[0].queue.scheduler packetLengths:histogram:stddev 165.61573424216502
scalar MldDemo.router.eth[0].queue.scheduler packetLengths:histogram:min 656
scalar MldDemo.router.eth[0].queue.scheduler packetLengths:histogram:max 976
scalar MldDemo.router.eth[0].queue.scheduler packetLengths:histogram:numbins 49
scalar MldDemo.router.eth[0].queue.scheduler packetLengths:histogram:rangemin 570
scalar MldDemo.router.eth[0].queue.scheduler packetLengths:histogram:rangemax 1060
scalar MldDemo.router.eth[0].queue.scheduler packetLengths:histogram:underflows 0
scalar MldDemo.router.eth[0].queue.scheduler packetLengths:histogram:overflows 0
scalar MldDemo.router.eth[0].queue queueingTime:histogram:count 8
scalar MldDemo.router.eth[0].queue queueingTime:histogram:sumweights 8
scalar MldDemo.router.eth[0].queue queueingTime:histogram:mean 0
scalar MldDemo.router.eth[0].queue queueingTime:histogram:stddev 0
scalar MldDemo.router.eth[0].queue queueingTime:histogram:min 0
scalar MldDemo.router.eth[0].queue queueingTime:histogram:max 0
scalar MldDemo.router.eth[0].queue queueingTime:histogram:numbins 50
scalar MldDemo.router.eth[0].queue queueingTime:histogram:rangemin -0.5
scalar MldDemo.router.eth[0].queue queueingTime:histogram:rangemax 0.5
scalar MldDemo.router.eth[0].queue queueingTime:histogram:underflows 0
scalar MldDemo.router.eth[0].queue queueingTime:histogram:overflows 0
scalar MldDemo.router.eth[0].queue outgoingPacketLengths:histogram:count 8
scalar MldDemo.router.eth[0].queue outgoingPacketLengths:histogram:sumweights 8
scalar MldDemo.router.eth[0].queue outgoingPacketLengths:histogram:mean 776
scalar MldDemo.router.eth[0].queue outgoingPacketLengths:histogram:stddev 165.61573424216502
scalar MldDemo.router.eth[0].queue outgoingPacketLengths:histogram:min 656
scalar MldDemo.router.eth[0].queue outgoingPacketLengths:histogram:max 976
scalar MldDemo.router.eth[0].queue outgoingPacketLengths:histogram:numbins 49
scalar MldDemo.router.eth[0].queue outgoingPacketLengths:histogram:rangemin 570
scalar MldDemo.router.eth[0].queue outgoingPacketLengths:histogram:rangemax 1060
scalar MldDemo.router.eth[0].queue outgoingPacketLengths:histogram:underflows 0
scalar MldDemo.router.eth[0].queue outgoingPacketLengths:histogram:overflows 0
scalar MldDemo.router.eth[0].queue flowQueueingTime:histogram:count 0
scalar MldDemo.router.eth[0].queue flowQueueingTime:histogram:sumweights 0
scalar MldDemo.router.eth[0].queue flowQueueingTime:histogram:mean nan
scalar MldDemo.router.eth[0].queue flowQueueingTime:histogram:stddev nan
scalar MldDemo.router.eth[0].queue flowQueueingTime:histogram:min nan
scalar MldDemo.router.eth[0].queue flowQueueingTime:histogram:max nan
scalar MldDemo.router.eth[0].queue flowQueueingTime:histogram:numbins 1
scalar MldDemo.router.eth[0].queue flowQueueingTime:histogram:rangemin 0
scalar MldDemo.router.eth[0].queue flowQueueingTime:histogram:rangemax 1
scalar MldDemo.router.eth[0].queue flowQueueingTime:histogram:underflows 0
scalar MldDemo.router.eth[0].queue flowQueueingTime:histogram:overflows 0
scalar MldDemo.router.eth[0].queue incomingPacketLengths:histogram:count 0
scalar MldDemo.router.eth[0].queue incomingPacketLengths:histogram:sumweights 0
scalar MldDemo.router.eth[0].queue incomingPacketLengths:histogram:mean nan
scalar MldDemo.router.eth[0].queue incomingPacketLengths:histogram:stddev nan
scalar MldDemo.router.eth[0].queue incomingPacketLengths:histogram:min nan
scalar MldDemo.router.eth[0].queue incomingPacketLengths:histogram:max nan
scalar MldDemo.router.eth[0].queue incomingPacketLengths:histogram:numbins 1
scalar MldDemo.router.eth[0].queue incomingPacketLengths:histogram:rangemin 0
scalar MldDemo.router.eth[0].queue incomingPacketLengths:histogram:rangemax 1
scalar MldDemo.router.eth[0].queue incomingPacketLengths:histogram:underflows 0
scalar MldDemo.router.eth[0].queue incomingPacketLengths:histogram:overflows 0
scalar MldDemo.router.eth[0].mac throughput:histogram:count 300
scalar MldDemo.router.eth[0].mac throughput:histogram:sumweights 300
scalar MldDemo.router.eth[0].mac throughput:histogram:mean 224
scalar MldDemo.router.eth[0].mac throughput:histogram:stddev 1723.9481791558342
scalar MldDemo.router.eth[0].mac throughput:histogram:min 0
scalar MldDemo.router.eth[0].mac throughput:histogram:max 20800
scalar MldDemo.router.eth[0].mac throughput:histogram:numbins 52
scalar MldDemo.router.eth[0].mac throughput:histogram:rangemin 0
scalar MldDemo.router.eth[0].mac throughput:histogram:rangemax 26000
scalar MldDemo.router.eth[0].mac throughput:histogram:underflows 0
scalar MldDemo.router.eth[0].mac throughput:histogram:overflows 0
scalar MldDemo.router.eth[0].mac utilization:histogram:count 300
scalar MldDemo.router.eth[0].mac utilization:histogram:sumweights 300
scalar MldDemo.router.eth[0].mac utilization:histogram:mean 0.00022400000000000002
scalar MldDemo.router.eth[0].mac utilization:histogram:stddev 0.0017239481791558342
scalar MldDemo.router.eth[0].mac utilization:histogram:min 0
scalar MldDemo.router.eth[0].mac utilization:histogram:max 0.020800000000000003
scalar MldDemo.router.eth[0].mac utilization:histogram:numbins 52
scalar MldDemo.router.eth[0].mac utilization:histogram:rangemin 0
scalar MldDemo.router.eth[0].mac utilization:histogram:rangemax 0.026000000000000002
scalar MldDemo.router.eth[0].mac utilization:histogram:underflows 0
scalar MldDemo.router.eth[0].mac utilization:histogram:overflows 0
scalar MldDemo.host1.eth[0].queue.classifier packetLengths:histogram:count 5
scalar MldDemo.host1.eth[0].queue.classifier packetLengths:histogram:sumweights 5
scalar MldDemo.host1.eth[0].queue.classifier packetLengths:histogram:mean 643.2
scalar MldDemo.host1.eth[0].queue.classifier packetLengths:histogram:stddev 28.621670111996668
scalar MldDemo.host1.eth[0].queue.classifier packetLengths:histogram:min 592
scalar MldDemo.host1.eth[0].queue.classifier packetLengths:histogram:max 656
scalar MldDemo.host1.eth[0].queue.classifier packetLengths:histogram:numbins 48
scalar MldDemo.host1.eth[0].queue.classifier packetLengths:histogram:rangemin 576
scalar MldDemo.host1.eth[0].queue.classifier packetLengths:histogram:rangemax 672
scalar MldDemo.host1.eth[0].queue.classifier packetLengths:histogram:underflows 0
scalar MldDemo.host1.eth[0].queue.classifier packetLengths:histogram:overflows 0
scalar MldDemo.host1.eth[0].queue.pauseQueue queueingTime:histogram:count 0
scalar MldDemo.host1.eth[0].queue.pauseQueue queueingTime:histogram:sumweights 0
scalar MldDemo.host1.eth[0].queue.pauseQueue queueingTime:histogram:mean nan
scalar MldDemo.host1.eth[0].queue.pauseQueue queueingTime:histogram:stddev nan
scalar MldDemo.host1.eth[0].queue.pauseQueue queueingTime:histogram:min nan
scalar MldDemo.host1.eth[0].queue.pauseQueue queueingTime:histogram:max nan
scalar MldDemo.host1.eth[0].queue.pauseQueue queueingTime:histogram:numbins 1
scalar MldDemo.host1.eth[0].queue.pauseQueue queueingTime:histogram:rangemin 0
scalar MldDemo.host1.eth[0].queue.pauseQueue queueingTime:histogram:rangemax 1
scalar MldDemo.host1.eth[0].queue.pauseQueue queueingTime:histogram:underflows 0
scalar MldDemo.host1.eth[0].queue.pauseQueue queueingTime:histogram:overflows 0
scalar MldDemo.host1.eth[0].queue.pauseQueue outgoingPacketLengths:histogram:count 0
scalar MldDemo.host1.eth[0].queue.pauseQueue outgoingPacketLengths:histogram:sumweights 0
scalar MldDemo.host1.eth[0].queue.pauseQueue outgoingPacketLengths:histogram:mean nan
scalar MldDemo.host1.eth[0].queue.pauseQueue outgoingPacketLengths:histogram:stddev nan
scalar MldDemo.host1.eth[0].queue.pauseQueue outgoingPacketLengths:histogram:min nan
scalar MldDemo.host1.eth[0].queue.pauseQueue outgoingPacketLengths:histogram:max nan
scalar MldDemo.host1.eth[0].queue.pauseQueue outgoingPacketLengths:histogram:numbins 1
scalar MldDemo.host1.eth[0].queue.pauseQueue outgoingPacketLengths:histogram:rangemin 0
scalar MldDemo.host1.eth[0].queue.pauseQueue outgoingPacketLengths:histogram:rangemax 1
scalar MldDemo.host1.eth[0].queue.pauseQueue outgoingPacketLengths:histogram:underflows 0
scalar MldDemo.host1.eth[0].queue.pauseQueue outgoingPacketLengths:histogram:overflows 0
scalar MldDemo.host1.eth[0].queue.pauseQueue flowQueueingTime:histogram:count 0
scalar MldDemo.host1.eth[0].queue.pauseQueue flowQueueingTime:histogram:sumweights 0
scalar MldDemo.host1.eth[0].queue.pauseQueue flowQueueingTime:histogram:mean nan
scalar MldDemo.host1.eth[0].queue.pauseQueue flowQueueingTime:histogram:stddev nan
scalar MldDemo.host1.eth[0].queue.pauseQueue flowQueueingTime:histogram:min nan
scalar MldDemo.host1.eth[0].queue.pauseQueue flowQueueingTime:histogram:max nan
scalar MldDemo.host1.eth[0].queue.pauseQueue flowQueueingTime:histogram:numbins 1
scalar MldDemo.host1.eth[0].queue.pauseQueue flowQueueingTime:histogram:rangemin 0
scalar MldDemo.host1.eth[0].queue.pauseQueue flowQueueingTime:histogram:rangemax 1
scalar MldDemo.host1.eth[0].queue.pauseQueue flowQueueingTime:histogram:underflows 0
scalar MldDemo.host1.eth[0].queue.pauseQueue flowQueueingTime:histogram:overflows 0
scalar MldDemo.host1.eth[0].queue.pauseQueue incomingPacketLengths:histogram:count 0
scalar MldDemo.host1.eth[0].queue.pauseQueue incomingPacketLengths:histogram:sumweights 0
scalar MldDemo.host1.eth[0].queue.pauseQueue incomingPacketLengths:histogram:mean nan
scalar MldDemo.host1.eth[0].queue.pauseQueue incomingPacketLengths:histogram:stddev nan
scalar MldDemo.host1.eth[0].queue.pauseQueue incomingPacketLengths:histogram:min nan
scalar MldDemo.host1.eth[0].queue.pauseQueue incomingPacketLengths:histogram:max nan
scalar MldDemo.host1.eth[0].queue.pauseQueue incomingPacketLengths:histogram:numbins 1
scalar MldDemo.host1.eth[0].queue.pauseQueue incomingPacketLengths:histogram:rangemin 0
scalar MldDemo.host1.eth[0].queue.pauseQueue incomingPacketLengths:histogram:rangemax 1
scalar MldDemo.host1.eth[0].queue.pauseQueue incomingPacketLengths:histogram:underflows 0
scalar MldDemo.host1.eth[0].queue.pauseQueue incomingPacketLengths:histogram:overflows 0
scalar MldDemo.host1.eth[0].queue.dataQueue queueingTime:histogram:count 5
scalar MldDemo.host1.eth[0].queue.dataQueue queueingTime:histogram:sumweights 5
scalar MldDemo.host1.eth[0].queue.dataQueue queueingTime:histogram:mean 0
scalar MldDemo.host1.eth[0].queue.dataQueue queueingTime:histogram:stddev 0
scalar MldDemo.host1.eth[0].queue.dataQueue queueingTime:histogram:min 0
scalar MldDemo.host1.eth[0].queue.dataQueue queueingTime:histogram:max 0
scalar MldDemo.host1.eth[0].queue.dataQueue queueingTime:histogram:numbins 50
scalar MldDemo.host1.eth[0].queue.dataQueue queueingTime:histogram:rangemin -0.5
scalar MldDemo.host1.eth[0].queue.dataQueue queueingTime:histogram:rangemax 0.5
scalar MldDemo.host1.eth[0].queue.dataQueue queueingTime:histogram:underflows 0
scalar MldDemo.host1.eth[0].queue.dataQueue queueingTime:histogram:overflows 0
scalar MldDemo.host1.eth[0].queue.dataQueue outgoingPacketLengths:histogram:count 5
scalar MldDemo.host1.eth[0].queue.dataQueue outgoingPacketLengths:histogram:sumweights 5
scalar MldDemo.host1.eth[0].queue.dataQueue outgoingPacketLengths:histogram:mean 643.2
scalar MldDemo.host1.eth[0].queue.dataQueue outgoingPacketLengths:histogram:stddev 28.621670111996668
scalar MldDemo.host1.eth[0].queue.dataQueue outgoingPacketLengths:histogram:min 592
scalar MldDemo.host1.eth[0].queue.dataQueue outgoingPacketLengths:histogram:max 656
scalar MldDemo.host1.eth[0].queue.dataQueue outgoingPacketLengths:histogram:numbins 48
scalar MldDemo.host1.eth[0].queue.dataQueue outgoingPacketLengths:histogram:rangemin 576
scalar MldDemo.host1.eth[0].queue.dataQueue outgoingPacketLengths:histogram:rangemax 672
scalar MldDemo.host1.eth[0].queue.dataQueue outgoingPacketLengths:histogram:underflows 0
scalar MldDemo.host1.eth[0].queue.dataQueue outgoingPacketLengths:histogram:overflows 0
scalar MldDemo.host1.eth[0].queue.dataQueue flowQueueingTime:histogram:count 0
scalar MldDemo.host1.eth[0].queue.dataQueue flowQueueingTime:histogram:sumweights 0
scalar MldDemo.host1.eth[0].queue.dataQueue flowQueueingTime:histogram:mean nan
scalar MldDemo.host1.eth[0].queue.dataQueue flowQueueingTime:histogram:stddev nan
scalar MldDemo.host1.eth[0].queue.dataQueue flowQueueingTime:histogram:min nan
scalar MldDemo.host1.eth[0].queue.dataQueue flowQueueingTime:histogram:max nan
scalar MldDemo.host1.eth[0].queue.dataQueue flowQueueingTime:histogram:numbins 1
scalar MldDemo.host1.eth[0].queue.dataQueue flowQueueingTime:histogram:rangemin 0
scalar MldDemo.host1.eth[0].queue.dataQueue flowQueueingTime:histogram:rangemax 1
scalar MldDemo.host1.eth[0].queue.dataQueue flowQueueingTime:histogram:underflows 0
scalar MldDemo.host1.eth[0].queue.dataQueue flowQueueingTime:histogram:overflows 0
scalar MldDemo.host1.eth[0].queue.dataQueue incomingPacketLengths:histogram:count 5
scalar MldDemo.host1.eth[0].queue.dataQueue incomingPacketLengths:histogram:sumweights 5
scalar MldDemo.host1.eth[0].queue.dataQueue incomingPacketLengths:histogram:mean 643.2
scalar MldDemo.host1.eth[0].queue.dataQueue incomingPacketLengths:histogram:stddev 28.621670111996668
scalar MldDemo.host1.eth[0].queue.dataQueue incomingPacketLengths:histogram:min 592
scalar MldDemo.host1.eth[0].queue.dataQueue incomingPacketLengths:histogram:max 656
scalar MldDemo.host1.eth[0].queue.dataQueue incomingPacketLengths:histogram:numbins 48
scalar MldDemo.host1.eth[0].queue.dataQueue incomingPacketLengths:histogram:rangemin 576
scalar MldDemo.host1.eth[0].queue.dataQueue incomingPacketLengths:histogram:rangemax 672
scalar MldDemo.host1.eth[0].queue.dataQueue incomingPacketLengths:histogram:underflows 0
scalar MldDemo.host1.eth[0].queue.dataQueue incomingPacketLengths:histogram:overflows 0
scalar MldDemo.host1.eth[0].queue.scheduler packetLengths:histogram:count 5
scalar MldDemo.host1.eth[0].queue.scheduler packetLengths:histogram:sumweights 5
scalar MldDemo.host1.eth[0].queue.scheduler packetLengths:histogram:mean 643.2
scalar MldDemo.host1.eth[0].queue.scheduler packetLengths:histogram:stddev 28.621670111996668
scalar MldDemo.host1.eth[0].queue.scheduler packetLengths:histogram:min 592
scalar MldDemo.host1.eth[0].queue.scheduler packetLengths:histogram:max 656
scalar MldDemo.host1.eth[0].queue.scheduler packetLengths:histogram:numbins 48
scalar MldDemo.host1.eth[0].queue.scheduler packetLengths:histogram:rangemin 576
scalar MldDemo.host1.eth[0].queue.scheduler packetLengths:histogram:rangemax 672
scalar MldDemo.host1.eth[0].queue.scheduler packetLengths:histogram:underflows 0
scalar MldDemo.host1.eth[0].queue.scheduler packetLengths:histogram:overflows 0
scalar MldDemo.host1.eth[0].queue queueingTime:histogram:count 5
scalar MldDemo.host1.eth[0].queue queueingTime:histogram:sumweights 5
scalar MldDemo.host1.eth[0].queue queueingTime:histogram:mean 0
scalar MldDemo.host1.eth[0].queue queueingTime:histogram:stddev 0
scalar MldDemo.host1.eth[0].queue queueingTime:histogram:min 0
scalar MldDemo.host1.eth[0].queue queueingTime:histogram:max 0
scalar MldDemo.host1.eth[0].queue queueingTime:histogram:numbins 50
scalar MldDemo.host1.eth[0].queue queueingTime:histogram:rangemin -0.5
scalar MldDemo.host1.eth[0].queue queueingTime:histogram:rangemax 0.5
scalar MldDemo.host1.eth[0].queue queueingTime:histogram:underflows 0
scalar MldDemo.host1.eth[0].queue queueingTime:histogram:overflows 0
scalar MldDemo.host1.eth[0].queue outgoingPacketLengths:histogram:count 5
scalar MldDemo.host1.eth[0].queue outgoingPacketLengths:histogram:sumweights 5
scalar MldDemo.host1.eth[0].queue outgoingPacketLengths:histogram:mean 643.2
scalar MldDemo.host1.eth[0].queue outgoingPacketLengths:histogram:stddev 28.621670111996668
scalar MldDemo.host1.eth[0].queue outgoingPacketLengths:histogram:min 592
scalar MldDemo.host1.eth[0].queue outgoingPacketLengths:histogram:max 656
scalar MldDemo.host1.eth[0].queue outgoingPacketLengths:histogram:numbins 48
scalar MldDemo.host1.eth[0].queue outgoingPacketLengths:histogram:rangemin 576
scalar MldDemo.host1.eth[0].queue outgoingPacketLengths:histogram:rangemax 672
scalar MldDemo.host1.eth[0].queue outgoingPacketLengths:histogram:underflows 0
scalar MldDemo.host1.eth[0].queue outgoingPacketLengths:histogram:overflows 0
scalar MldDemo.host1.eth[0].queue flowQueueingTime:histogram:count 0
scalar MldDemo.host1.eth[0].queue flowQueueingTime:histogram:sumweights 0
scalar MldDemo.host1.eth[0].queue flowQueueingTime:histogram:mean nan
scalar MldDemo.host1.eth[0].queue flowQueueingTime:histogram:stddev nan
scalar MldDemo.host1.eth[0].queue flowQueueingTime:histogram:min nan
scalar MldDemo.host1.eth[0].queue flowQueueingTime:histogram:max nan
scalar MldDemo.host1.eth[0].queue flowQueueingTime:histogram:numbins 1
scalar MldDemo.host1.eth[0].queue flowQueueingTime:histogram:rangemin 0
scalar MldDemo.host1.eth[0].queue flowQueueingTime:histogram:rangemax 1
scalar MldDemo.host1.eth[0].queue flowQueueingTime:histogram:underflows 0
scalar MldDemo.host1.eth[0].queue flowQueueingTime:histogram:overflows 0
scalar MldDemo.host1.eth[0].queue incomingPacketLengths:histogram:count 0
scalar MldDemo.host1.eth[0].queue incomingPacketLengths:histogram:sumweights 0
scalar MldDemo.host1.eth[0].queue incomingPacketLengths:histogram:mean nan
scalar MldDemo.host1.eth[0].queue incomingPacketLengths:histogram:stddev nan
scalar MldDemo.host1.eth[0].queue incomingPacketLengths:histogram:min nan
scalar MldDemo.host1.eth[0].queue incomingPacketLengths:histogram:max nan
scalar MldDemo.host1.eth[0].queue incomingPacketLengths:histogram:numbins 1
scalar MldDemo.host1.eth[0].queue incomingPacketLengths:histogram:rangemin 0
scalar MldDemo.host1.eth[0].queue incomingPacketLengths:histogram:rangemax 1
scalar MldDemo.host1.eth[0].queue incomingPacketLengths:histogram:underflows 0
scalar MldDemo.host1.eth[0].queue incomingPacketLengths:histogram:overflows 0
scalar MldDemo.host1.eth[0].mac throughput:histogram:count 300
scalar MldDemo.host1.eth[0].mac throughput:histogram:sumweights 300
scalar MldDemo.host1.eth[0].mac throughput:histogram:mean 117.86666666666669
scalar MldDemo.host1.eth[0].mac throughput:histogram:stddev 907.4677816897442
scalar MldDemo.host1.eth[0].mac throughput:histogram:min 0
scalar MldDemo.host1.eth[0].mac throughput:histogram:max 7200.000000000001
scalar MldDemo.host1.eth[0].mac throughput:histogram:numbins 46
scalar MldDemo.host1.eth[0].mac throughput:histogram:rangemin 0
scalar MldDemo.host1.eth[0].mac throughput:histogram:rangemax 9200
scalar MldDemo.host1.eth[0].mac throughput:histogram:underflows 0
scalar MldDemo.host1.eth[0].mac throughput:histogram:overflows 0
scalar MldDemo.host1.eth[0].mac utilization:histogram:count 300
scalar MldDemo.host1.eth[0].mac utilization:histogram:sumweights 300
scalar MldDemo.host1.eth[0].mac utilization:histogram:mean 0.00011786666666666668
scalar MldDemo.host1.eth[0].mac utilization:histogram:stddev 0.0009074677816897442
scalar MldDemo.host1.eth[0].mac utilization:histogram:min 0
scalar MldDemo.host1.eth[0].mac utilization:histogram:max 0.0072
scalar MldDemo.host1.eth[0].mac utilization:histogram:numbins 45
scalar MldDemo.host1.eth[0].mac utilization:histogram:rangemin 0
scalar MldDemo.host1.eth[0].mac utilization:histogram:rangemax 0.009000000000000001
scalar MldDemo.host1.eth[0].mac utilization:histogram:underflows 0
scalar MldDemo.host1.eth[0].mac utilization:histogram:overflows 0
scalar MldDemo.host1.app[0] endToEndDelay:histogram:count 10
scalar MldDemo.host1.app[0] endToEndDelay:histogram:sumweights 10
scalar MldDemo.host1.app[0] endToEndDelay:histogram:mean 1.1239999999999999e-05
scalar MldDemo.host1.app[0] endToEndDelay:histogram:stddev 0
scalar MldDemo.host1.app[0] endToEndDelay:histogram:min 1.1239999999999999e-05
scalar MldDemo.host1.app[0] endToEndDelay:histogram:max 1.1239999999999999e-05
scalar MldDemo.host1.app[0] endToEndDelay:histogram:numbins 51
scalar MldDemo.host1.app[0] endToEndDelay:histogram:rangemin 0
scalar MldDemo.host1.app[0] endToEndDelay:histogram:rangemax 0.51
scalar MldDemo.host1.app[0] endToEndDelay:histogram:underflows 0
scalar MldDemo.host1.app[0] endToEndDelay:histogram:overflows 0
scalar MldDemo.host2.eth[0].queue.classifier packetLengths:histogram:count 6
scalar MldDemo.host2.eth[0].queue.classifier packetLengths:histogram:sumweights 6
scalar MldDemo.host2.eth[0].queue.classifier packetLengths:histogram:mean 645.3333333333334
scalar MldDemo.host2.eth[0].queue.classifier packetLengths:histogram:stddev 26.12789058968667
scalar MldDemo.host2.eth[0].queue.classifier packetLengths:histogram:min 592
scalar MldDemo.host2.eth[0].queue.classifier packetLengths:histogram:max 656
scalar MldDemo.host2.eth[0].queue.classifier packetLengths:histogram:numbins 48
scalar MldDemo.host2.eth[0].queue.classifier packetLengths:histogram:rangemin 576
scalar MldDemo.host2.eth[0].queue.classifier packetLengths:histogram:rangemax 672
scalar MldDemo.host2.eth[0].queue.classifier packetLengths:histogram:underflows 0
scalar MldDemo.host2.eth[0].queue.classifier packetLengths:histogram:overflows 0
scalar MldDemo.host2.eth[0].queue.pauseQueue queueingTime:histogram:count 0
scalar MldDemo.host2.eth[0].queue.pauseQueue queueingTime:histogram:sumweights 0
scalar MldDemo.host2.eth[0].queue.pauseQueue queueingTime:histogram:mean nan
scalar MldDemo.host2.eth[0].queue.pauseQueue queueingTime:histogram:stddev nan
scalar MldDemo.host2.eth[0].queue.pauseQueue queueingTime:histogram:min nan
scalar MldDemo.host2.eth[0].queue.pauseQueue queueingTime:histogram:max nan
scalar MldDemo.host2.eth[0].queue.pauseQueue queueingTime:histogram:numbins 1
scalar MldDemo.host2.eth[0].queue.pauseQueue queueingTime:histogram:rangemin 0
scalar MldDemo.host2.eth[0].queue.pauseQueue queueingTime:histogram:rangemax 1
scalar MldDemo.host2.eth[0].queue.pauseQueue queueingTime:histogram:underflows 0
scalar MldDemo.host2.eth[0].queue.pauseQueue queueingTime:histogram:overflows 0
scalar MldDemo.host2.eth[0].queue.pauseQueue outgoingPacketLengths:histogram:count 0
scalar MldDemo.host2.eth[0].queue.pauseQueue outgoingPacketLengths:histogram:sumweights 0
scalar MldDemo.host2.eth[0].queue.pauseQueue outgoingPacketLengths:histogram:mean nan
scalar MldDemo.host2.eth[0].queue.pauseQueue outgoingPacketLengths:histogram:stddev nan
scalar MldDemo.host2.eth[0].queue.pauseQueue outgoingPacketLengths:histogram:min nan
scalar MldDemo.host2.eth[0].queue.pauseQueue outgoingPacketLengths:histogram:max nan
scalar MldDemo.host2.eth[0].queue.pauseQueue outgoingPacketLengths:histogram:numbins 1
scalar MldDemo.host2.eth[0].queue.pauseQueue outgoingPacketLengths:histogram:rangemin 0
scalar MldDemo.host2.eth[0].queue.pauseQueue outgoingPacketLengths:histogram:rangemax 1
scalar MldDemo.host2.eth[0].queue.pauseQueue outgoingPacketLengths:histogram:underflows 0
scalar MldDemo.host2.eth[0].queue.pauseQueue outgoingPacketLengths:histogram:overflows 0
scalar MldDemo.host2.eth[0].queue.pauseQueue flowQueueingTime:histogram:count 0
scalar MldDemo.host2.eth[0].queue.pauseQueue flowQueueingTime:histogram:sumweights 0
scalar MldDemo.host2.eth[0].queue.pauseQueue flowQueueingTime:histogram:mean nan
scalar MldDemo.host2.eth[0].queue.pauseQueue flowQueueingTime:histogram:stddev nan
scalar MldDemo.host2.eth[0].queue.pauseQueue flowQueueingTime:histogram:min nan
scalar MldDemo.host2.eth[0].queue.pauseQueue flowQueueingTime:histogram:max nan
scalar MldDemo.host2.eth[0].queue.pauseQueue flowQueueingTime:histogram:numbins 1
scalar MldDemo.host2.eth[0].queue.pauseQueue flowQueueingTime:histogram:rangemin 0
scalar MldDemo.host2.eth[0].queue.pauseQueue flowQueueingTime:histogram:rangemax 1
scalar MldDemo.host2.eth[0].queue.pauseQueue flowQueueingTime:histogram:underflows 0
scalar MldDemo.host2.eth[0].queue.pauseQueue flowQueueingTime:histogram:overflows 0
scalar MldDemo.host2.eth[0].queue.pauseQueue incomingPacketLengths:histogram:count 0
scalar MldDemo.host2.eth[0].queue.pauseQueue incomingPacketLengths:histogram:sumweights 0
scalar MldDemo.host2.eth[0].queue.pauseQueue incomingPacketLengths:histogram:mean nan
scalar MldDemo.host2.eth[0].queue.pauseQueue incomingPacketLengths:histogram:stddev nan
scalar MldDemo.host2.eth[0].queue.pauseQueue incomingPacketLengths:histogram:min nan
scalar MldDemo.host2.eth[0].queue.pauseQueue incomingPacketLengths:histogram:max nan
scalar MldDemo.host2.eth[0].queue.pauseQueue incomingPacketLengths:histogram:numbins 1
scalar MldDemo.host2.eth[0].queue.pauseQueue incomingPacketLengths:histogram:rangemin 0
scalar MldDemo.host2.eth[0].queue.pauseQueue incomingPacketLengths:histogram:rangemax 1
scalar MldDemo.host2.eth[0].queue.pauseQueue incomingPacketLengths:histogram:underflows 0
scalar MldDemo.host2.eth[0].queue.pauseQueue incomingPacketLengths:histogram:overflows 0
scalar MldDemo.host2.eth[0].queue.dataQueue queueingTime:histogram:count 6
scalar MldDemo.host2.eth[0].queue.dataQueue queueingTime:histogram:sumweights 6
scalar MldDemo.host2.eth[0].queue.dataQueue queueingTime:histogram:mean 1.36e-06
scalar MldDemo.host2.eth[0].queue.dataQueue queueingTime:histogram:stddev 3.3313060501851223e-06
scalar MldDemo.host2.eth[0].queue.dataQueue queueingTime:histogram:min 0
scalar MldDemo.host2.eth[0].queue.dataQueue queueingTime:histogram:max 8.16e-06
scalar MldDemo.host2.eth[0].queue.dataQueue queueingTime:histogram:numbins 51
scalar MldDemo.host2.eth[0].queue.dataQueue queueingTime:histogram:rangemin 0
scalar MldDemo.host2.eth[0].queue.dataQueue queueingTime:histogram:rangemax 1.0200000000000002e-05
scalar MldDemo.host2.eth[0].queue.dataQueue queueingTime:histogram:underflows 0
scalar MldDemo.host2.eth[0].queue.dataQueue queueingTime:histogram:overflows 0
scalar MldDemo.host2.eth[0].queue.dataQueue outgoingPacketLengths:histogram:count 6
scalar MldDemo.host2.eth[0].queue.dataQueue outgoingPacketLengths:histogram:sumweights 6
scalar MldDemo.host2.eth[0].queue.dataQueue outgoingPacketLengths:histogram:mean 645.3333333333334
scalar MldDemo.host2.eth[0].queue.dataQueue outgoingPacketLengths:histogram:stddev 26.12789058968667
scalar MldDemo.host2.eth[0].queue.dataQueue outgoingPacketLengths:histogram:min 592
scalar MldDemo.host2.eth[0].queue.dataQueue outgoingPacketLengths:histogram:max 656
scalar MldDemo.host2.eth[0].queue.dataQueue outgoingPacketLengths:histogram:numbins 48
scalar MldDemo.host2.eth[0].queue.dataQueue outgoingPacketLengths:histogram:rangemin 576
scalar MldDemo.host2.eth[0].queue.dataQueue outgoingPacketLengths:histogram:rangemax 672
scalar MldDemo.host2.eth[0].queue.dataQueue outgoingPacketLengths:histogram:underflows 0
scalar MldDemo.host2.eth[0].queue.dataQueue outgoingPacketLengths:histogram:overflows 0
scalar MldDemo.host2.eth[0].queue.dataQueue flowQueueingTime:histogram:count 0
scalar MldDemo.host2.eth[0].queue.dataQueue flowQueueingTime:histogram:sumweights 0
scalar MldDemo.host2.eth[0].queue.dataQueue flowQueueingTime:histogram:mean nan
scalar MldDemo.host2.eth[0].queue.dataQueue flowQueueingTime:histogram:stddev nan
scalar MldDemo.host2.eth[0].queue.dataQueue flowQueueingTime:histogram:min nan
scalar MldDemo.host2.eth[0].queue.dataQueue flowQueueingTime:histogram:max nan
scalar MldDemo.host2.eth[0].queue.dataQueue flowQueueingTime:histogram:numbins 1
scalar MldDemo.host2.eth[0].queue.dataQueue flowQueueingTime:histogram:rangemin 0
scalar MldDemo.host2.eth[0].queue.dataQueue flowQueueingTime:histogram:rangemax 1
scalar MldDemo.host2.eth[0].queue.dataQueue flowQueueingTime:histogram:underflows 0
scalar MldDemo.host2.eth[0].queue.dataQueue flowQueueingTime:histogram:overflows 0
scalar MldDemo.host2.eth[0].queue.dataQueue incomingPacketLengths:histogram:count 6
scalar MldDemo.host2.eth[0].queue.dataQueue incomingPacketLengths:histogram:sumweights 6
scalar MldDemo.host2.eth[0].queue.dataQueue incomingPacketLengths:histogram:mean 645.3333333333334
scalar MldDemo.host2.eth[0].queue.dataQueue incomingPacketLengths:histogram:stddev 26.12789058968667
scalar MldDemo.host2.eth[0].queue.dataQueue incomingPacketLengths:histogram:min 592
scalar MldDemo.host2.eth[0].queue.dataQueue incomingPacketLengths:histogram:max 656
scalar MldDemo.host2.eth[0].queue.dataQueue incomingPacketLengths:histogram:numbins 48
scalar MldDemo.host2.eth[0].queue.dataQueue incomingPacketLengths:histogram:rangemin 576
scalar MldDemo.host2.eth[0].queue.dataQueue incomingPacketLengths:histogram:rangemax 672
scalar MldDemo.host2.eth[0].queue.dataQueue incomingPacketLengths:histogram:underflows 0
scalar MldDemo.host2.eth[0].queue.dataQueue incomingPacketLengths:histogram:overflows 0
scalar MldDemo.host2.eth[0].queue.scheduler packetLengths:histogram:count 6
scalar MldDemo.host2.eth[0].queue.scheduler packetLengths:histogram:sumweights 6
scalar MldDemo.host2.eth[0].queue.scheduler packetLengths:histogram:mean 645.3333333333334
scalar MldDemo.host2.eth[0].queue.scheduler packetLengths:histogram:stddev 26.12789058968667
scalar MldDemo.host2.eth[0].queue.scheduler packetLengths:histogram:min 592
scalar MldDemo.host2.eth[0].queue.scheduler packetLengths:histogram:max 656
scalar MldDemo.host2.eth[0].queue.scheduler packetLengths:histogram:numbins 48
scalar MldDemo.host2.eth[0].queue.scheduler packetLengths:histogram:rangemin 576
scalar MldDemo.host2.eth[0].queue.scheduler packetLengths:histogram:rangemax 672
scalar MldDemo.host2.eth[0].queue.scheduler packetLengths:histogram:underflows 0
scalar MldDemo.host2.eth[0].queue.scheduler packetLengths:histogram:overflows 0
scalar MldDemo.host2.eth[0].queue queueingTime:histogram:count 6
scalar MldDemo.host2.eth[0].queue queueingTime:histogram:sumweights 6
scalar MldDemo.host2.eth[0].queue queueingTime:histogram:mean 0
scalar MldDemo.host2.eth[0].queue queueingTime:histogram:stddev 0
scalar MldDemo.host2.eth[0].queue queueingTime:histogram:min 0
scalar MldDemo.host2.eth[0].queue queueingTime:histogram:max 0
scalar MldDemo.host2.eth[0].queue queueingTime:histogram:numbins 50
scalar MldDemo.host2.eth[0].queue queueingTime:histogram:rangemin -0.5
scalar MldDemo.host2.eth[0].queue queueingTime:histogram:rangemax 0.5
scalar MldDemo.host2.eth[0].queue queueingTime:histogram:underflows 0
scalar MldDemo.host2.eth[0].queue queueingTime:histogram:overflows 0
scalar MldDemo.host2.eth[0].queue outgoingPacketLengths:histogram:count 6
scalar MldDemo.host2.eth[0].queue outgoingPacketLengths:histogram:sumweights 6
scalar MldDemo.host2.eth[0].queue outgoingPacketLengths:histogram:mean 645.3333333333334
scalar MldDemo.host2.eth[0].queue outgoingPacketLengths:histogram:stddev 26.12789058968667
scalar MldDemo.host2.eth[0].queue outgoingPacketLengths:histogram:min 592
scalar MldDemo.host2.eth[0].queue outgoingPacketLengths:histogram:max 656
scalar MldDemo.host2.eth[0].queue outgoingPacketLengths:histogram:numbins 48
scalar MldDemo.host2.eth[0].queue outgoingPacketLengths:histogram:rangemin 576
scalar MldDemo.host2.eth[0].queue outgoingPacketLengths:histogram:rangemax 672
scalar MldDemo.host2.eth[0].queue outgoingPacketLengths:histogram:underflows 0
scalar MldDemo.host2.eth[0].queue outgoingPacketLengths:histogram:overflows 0
scalar MldDemo.host2.eth[0].queue flowQueueingTime:histogram:count 0
scalar MldDemo.host2.eth[0].queue flowQueueingTime:histogram:sumweights 0
scalar MldDemo.host2.eth[0].queue flowQueueingTime:histogram:mean nan
scalar MldDemo.host2.eth[0].queue flowQueueingTime:histogram:stddev nan
scalar MldDemo.host2.eth[0].queue flowQueueingTime:histogram:min nan
scalar MldDemo.host2.eth[0].queue flowQueueingTime:histogram:max nan
scalar MldDemo.host2.eth[0].queue flowQueueingTime:histogram:numbins 1
scalar MldDemo.host2.eth[0].queue flowQueueingTime:histogram:rangemin 0
scalar MldDemo.host2.eth[0].queue flowQueueingTime:histogram:rangemax 1
scalar MldDemo.host2.eth[0].queue flowQueueingTime:histogram:underflows 0
scalar MldDemo.host2.eth[0].queue flowQueueingTime:histogram:overflows 0
scalar MldDemo.host2.eth[0].queue incomingPacketLengths:histogram:count 0
scalar MldDemo.host2.eth[0].queue incomingPacketLengths:histogram:sumweights 0
scalar MldDemo.host2.eth[0].queue incomingPacketLengths:histogram:mean nan
scalar MldDemo.host2.eth[0].queue incomingPacketLengths:histogram:stddev nan
scalar MldDemo.host2.eth[0].queue incomingPacketLengths:histogram:min nan
scalar MldDemo.host2.eth[0].queue incomingPacketLengths:histogram:max nan
scalar MldDemo.host2.eth[0].queue incomingPacketLengths:histogram:numbins 1
scalar MldDemo.host2.eth[0].queue incomingPacketLengths:histogram:rangemin 0
scalar MldDemo.host2.eth[0].queue incomingPacketLengths:histogram:rangemax 1
scalar MldDemo.host2.eth[0].queue incomingPacketLengths:histogram:underflows 0
scalar MldDemo.host2.eth[0].queue incomingPacketLengths:histogram:overflows 0
scalar MldDemo.host2.eth[0].mac throughput:histogram:count 300
scalar MldDemo.host2.eth[0].mac throughput:histogram:sumweights 300
scalar MldDemo.host2.eth[0].mac throughput:histogram:mean 141.8666666666667
scalar MldDemo.host2.eth[0].mac throughput:histogram:stddev 1156.4502176525302
scalar MldDemo.host2.eth[0].mac throughput:histogram:min 0
scalar MldDemo.host2.eth[0].mac throughput:histogram:max 14400.000000000002
scalar MldDemo.host2.eth[0].mac throughput:histogram:numbins 91
scalar MldDemo.host2.eth[0].mac throughput:histogram:rangemin 0
scalar MldDemo.host2.eth[0].mac throughput:histogram:rangemax 18200
scalar MldDemo.host2.eth[0].mac throughput:histogram:underflows 0
scalar MldDemo.host2.eth[0].mac throughput:histogram:overflows 0
scalar MldDemo.host2.eth[0].mac utilization:histogram:count 300
scalar MldDemo.host2.eth[0].mac utilization:histogram:sumweights 300
scalar MldDemo.host2.eth[0].mac utilization:histogram:mean 0.00014186666666666668
scalar MldDemo.host2.eth[0].mac utilization:histogram:stddev 0.00115645021765253
scalar MldDemo.host2.eth[0].mac utilization:histogram:min 0
scalar MldDemo.host2.eth[0].mac utilization:histogram:max 0.0144
scalar MldDemo.host2.eth[0].mac utilization:histogram:numbins 90
scalar MldDemo.host2.eth[0].mac utilization:histogram:rangemin 0
scalar MldDemo.host2.eth[0].mac utilization:histogram:rangemax 0.018000000000000002
scalar MldDemo.host2.eth[0].mac utilization:histogram:underflows 0
scalar MldDemo.host2.eth[0].mac utilization:histogram:overflows 0
scalar MldDemo.host2.app[0] endToEndDelay:histogram:count 3
scalar MldDemo.host2.app[0] endToEndDelay:histogram:sumweights 3
scalar MldDemo.host2.app[0] endToEndDelay:histogram:mean 1.1239999999999999e-05
scalar MldDemo.host2.app[0] endToEndDelay:histogram:stddev 0
scalar MldDemo.host2.app[0] endToEndDelay:histogram:min 1.1239999999999999e-05
scalar MldDemo.host2.app[0] endToEndDelay:histogram:max 1.1239999999999999e-05
scalar MldDemo.host2.app[0] endToEndDelay:histogram:numbins 51
scalar MldDemo.host2.app[0] endToEndDelay:histogram:rangemin 0
scalar MldDemo.host2.app[0] endToEndDelay:histogram:rangemax 0.51
scalar MldDemo.host2.app[0] endToEndDelay:histogram:underflows 0
scalar MldDemo.host2.app[0] endToEndDelay:histogram:overflows 0
scalar MldDemo.sender.eth[0].queue.classifier packetLengths:histogram:count 12
scalar MldDemo.sender.eth[0].queue.classifier packetLengths:histogram:sumweights 12
scalar MldDemo.sender.eth[0].queue.classifier packetLengths:histogram:mean 970.6666666666666
scalar MldDemo.sender.eth[0].queue.classifier packetLengths:histogram:stddev 162.5016550032273
scalar MldDemo.sender.eth[0].queue.classifier packetLengths:histogram:min 592
scalar MldDemo.sender.eth[0].queue.classifier packetLengths:histogram:max 1040
scalar MldDemo.sender.eth[0].queue.classifier packetLengths:histogram:numbins 68
scalar MldDemo.sender.eth[0].queue.classifier packetLengths:histogram:rangemin 480
scalar MldDemo.sender.eth[0].queue.classifier packetLengths:histogram:rangemax 1160
scalar MldDemo.sender.eth[0].queue.classifier packetLengths:histogram:underflows 0
scalar MldDemo.sender.eth[0].queue.classifier packetLengths:histogram:overflows 0
scalar MldDemo.sender.eth[0].queue.pauseQueue queueingTime:histogram:count 0
scalar MldDemo.sender.eth[0].queue.pauseQueue queueingTime:histogram:sumweights 0
scalar MldDemo.sender.eth[0].queue.pauseQueue queueingTime:histogram:mean nan
scalar MldDemo.sender.eth[0].queue.pauseQueue queueingTime:histogram:stddev nan
scalar MldDemo.sender.eth[0].queue.pauseQueue queueingTime:histogram:min nan
scalar MldDemo.sender.eth[0].queue.pauseQueue queueingTime:histogram:max nan
scalar MldDemo.sender.eth[0].queue.pauseQueue queueingTime:histogram:numbins 1
scalar MldDemo.sender.eth[0].queue.pauseQueue queueingTime:histogram:rangemin 0
scalar MldDemo.sender.eth[0].queue.pauseQueue queueingTime:histogram:rangemax 1
scalar MldDemo.sender.eth[0].queue.pauseQueue queueingTime:histogram:underflows 0
scalar MldDemo.sender.eth[0].queue.pauseQueue queueingTime:histogram:overflows 0
scalar MldDemo.sender.eth[0].queue.pauseQueue outgoingPacketLengths:histogram:count 0
scalar MldDemo.sender.eth[0].queue.pauseQueue outgoingPacketLengths:histogram:sumweights 0
scalar MldDemo.sender.eth[0].queue.pauseQueue outgoingPacketLengths:histogram:mean nan
scalar MldDemo.sender.eth[0].queue.pauseQueue outgoingPacketLengths:histogram:stddev nan
scalar MldDemo.sender.eth[0].queue.pauseQueue outgoingPacketLengths:histogram:min nan
scalar MldDemo.sender.eth[0].queue.pauseQueue outgoingPacketLengths:histogram:max nan
scalar MldDemo.sender.eth[0].queue.pauseQueue outgoingPacketLengths:histogram:numbins 1
scalar MldDemo.sender.eth[0].queue.pauseQueue outgoingPacketLengths:histogram:rangemin 0
scalar MldDemo.sender.eth[0].queue.pauseQueue outgoingPacketLengths:histogram:rangemax 1
scalar MldDemo.sender.eth[0].queue.pauseQueue outgoingPacketLengths:histogram:underflows 0
scalar MldDemo.sender.eth[0].queue.pauseQueue outgoingPacketLengths:histogram:overflows 0
scalar MldDemo.sender.eth[0].queue.pauseQueue flowQueueingTime:histogram:count 0
scalar MldDemo.sender.eth[0].queue.pauseQueue flowQueueingTime:histogram:sumweights 0
scalar MldDemo.sender.eth[0].queue.pauseQueue flowQueueingTime:histogram:mean nan
scalar MldDemo.sender.eth[0].queue.pauseQueue flowQueueingTime:histogram:stddev nan
scalar MldDemo.sender.eth[0].queue.pauseQueue flowQueueingTime:histogram:min nan
scalar MldDemo.sender.eth[0].queue.pauseQueue flowQueueingTime:histogram:max nan
scalar MldDemo.sender.eth[0].queue.pauseQueue flowQueueingTime:histogram:numbins 1
scalar MldDemo.sender.eth[0].queue.pauseQueue flowQueueingTime:histogram:rangemin 0
scalar MldDemo.sender.eth[0].queue.pauseQueue flowQueueingTime:histogram:rangemax 1
scalar MldDemo.sender.eth[0].queue.pauseQueue flowQueueingTime:histogram:underflows 0
scalar MldDemo.sender.eth[0].queue.pauseQueue flowQueueingTime:histogram:overflows 0
scalar MldDemo.sender.eth[0].queue.pauseQueue incomingPacketLengths:histogram:count 0
scalar MldDemo.sender.eth[0].queue.pauseQueue incomingPacketLengths:histogram:sumweights 0
scalar MldDemo.sender.eth[0].queue.pauseQueue incomingPacketLengths:histogram:mean nan
scalar MldDemo.sender.eth[0].queue.pauseQueue incomingPacketLengths:histogram:stddev nan
scalar MldDemo.sender.eth[0].queue.pauseQueue incomingPacketLengths:histogram:min nan
scalar MldDemo.sender.eth[0].queue.pauseQueue incomingPacketLengths:histogram:max nan
scalar MldDemo.sender.eth[0].queue.pauseQueue incomingPacketLengths:histogram:numbins 1
scalar MldDemo.sender.eth[0].queue.pauseQueue incomingPacketLengths:histogram:rangemin 0
scalar MldDemo.sender.eth[0].queue.pauseQueue incomingPacketLengths:histogram:rangemax 1
scalar MldDemo.sender.eth[0].queue.pauseQueue incomingPacketLengths:histogram:underflows 0
scalar MldDemo.sender.eth[0].queue.pauseQueue incomingPacketLengths:histogram:overflows 0
scalar MldDemo.sender.eth[0].queue.dataQueue queueingTime:histogram:count 12
scalar MldDemo.sender.eth[0].queue.dataQueue queueingTime:histogram:sumweights 12
scalar MldDemo.sender.eth[0].queue.dataQueue queueingTime:histogram:mean 0
scalar MldDemo.sender.eth[0].queue.dataQueue queueingTime:histogram:stddev 0
scalar MldDemo.sender.eth[0].queue.dataQueue queueingTime:histogram:min 0
scalar MldDemo.sender.eth[0].queue.dataQueue queueingTime:histogram:max 0
scalar MldDemo.sender.eth[0].queue.dataQueue queueingTime:histogram:numbins 50
scalar MldDemo.sender.eth[0].queue.dataQueue queueingTime:histogram:rangemin -0.5
scalar MldDemo.sender.eth[0].queue.dataQueue queueingTime:histogram:rangemax 0.5
scalar MldDemo.sender.eth[0].queue.dataQueue queueingTime:histogram:underflows 0
scalar MldDemo.sender.eth[0].queue.dataQueue queueingTime:histogram:overflows 0
scalar MldDemo.sender.eth[0].queue.dataQueue outgoingPacketLengths:histogram:count 12
scalar MldDemo.sender.eth[0].queue.dataQueue outgoingPacketLengths:histogram:sumweights 12
scalar MldDemo.sender.eth[0].queue.dataQueue outgoingPacketLengths:histogram:mean 970.6666666666666
scalar MldDemo.sender.eth[0].queue.dataQueue outgoingPacketLengths:histogram:stddev 162.5016550032273
scalar MldDemo.sender.eth[0].queue.dataQueue outgoingPacketLengths:histogram:min 592
scalar MldDemo.sender.eth[0].queue.dataQueue outgoingPacketLengths:histogram:max 1040
scalar MldDemo.sender.eth[0].queue.dataQueue outgoingPacketLengths:histogram:numbins 68
scalar MldDemo.sender.eth[0].queue.dataQueue outgoingPacketLengths:histogram:rangemin 480
scalar MldDemo.sender.eth[0].queue.dataQueue outgoingPacketLengths:histogram:rangemax 1160
scalar MldDemo.sender.eth[0].queue.dataQueue outgoingPacketLengths:histogram:underflows 0
scalar MldDemo.sender.eth[0].queue.dataQueue outgoingPacketLengths:histogram:overflows 0
scalar MldDemo.sender.eth[0].queue.dataQueue flowQueueingTime:histogram:count 0
scalar MldDemo.sender.eth[0].queue.dataQueue flowQueueingTime:histogram:sumweights 0
scalar MldDemo.sender.eth[0].queue.dataQueue flowQueueingTime:histogram:mean nan
scalar MldDemo.sender.eth[0].queue.dataQueue flowQueueingTime:histogram:stddev nan
scalar MldDemo.sender.eth[0].queue.dataQueue flowQueueingTime:histogram:min nan
scalar MldDemo.sender.eth[0].queue.dataQueue flowQueueingTime:histogram:max nan
scalar MldDemo.sender.eth[0].queue.dataQueue flowQueueingTime:histogram:numbins 1
scalar MldDemo.sender.eth[0].queue.dataQueue flowQueueingTime:histogram:rangemin 0
scalar MldDemo.sender.eth[0].queue.dataQueue flowQueueingTime:histogram:rangemax 1
scalar MldDemo.sender.eth[0].queue.dataQueue flowQueueingTime:histogram:underflows 0
scalar MldDemo.sender.eth[0].queue.dataQueue flowQueueingTime:histogram:overflows 0
scalar MldDemo.sender.eth[0].queue.dataQueue incomingPacketLengths:histogram:count 12
scalar MldDemo.sender.eth[0].queue.dataQueue incomingPacketLengths:histogram:sumweights 12
scalar MldDemo.sender.eth[0].queue.dataQueue incomingPacketLengths:histogram:mean 970.6666666666666
scalar MldDemo.sender.eth[0].queue.dataQueue incomingPacketLengths:histogram:stddev 162.5016550032273
scalar MldDemo.sender.eth[0].queue.dataQueue incomingPacketLengths:histogram:min 592
scalar MldDemo.sender.eth[0].queue.dataQueue incomingPacketLengths:histogram:max 1040
scalar MldDemo.sender.eth[0].queue.dataQueue incomingPacketLengths:histogram:numbins 68
scalar MldDemo.sender.eth[0].queue.dataQueue incomingPacketLengths:histogram:rangemin 480
scalar MldDemo.sender.eth[0].queue.dataQueue incomingPacketLengths:histogram:rangemax 1160
scalar MldDemo.sender.eth[0].queue.dataQueue incomingPacketLengths:histogram:underflows 0
scalar MldDemo.sender.eth[0].queue.dataQueue incomingPacketLengths:histogram:overflows 0
scalar MldDemo.sender.eth[0].queue.scheduler packetLengths:histogram:count 12
scalar MldDemo.sender.eth[0].queue.scheduler packetLengths:histogram:sumweights 12
scalar MldDemo.sender.eth[0].queue.scheduler packetLengths:histogram:mean 970.6666666666666
scalar MldDemo.sender.eth[0].queue.scheduler packetLengths:histogram:stddev 162.5016550032273
scalar MldDemo.sender.eth[0].queue.scheduler packetLengths:histogram:min 592
scalar MldDemo.sender.eth[0].queue.scheduler packetLengths:histogram:max 1040
scalar MldDemo.sender.eth[0].queue.scheduler packetLengths:histogram:numbins 68
scalar MldDemo.sender.eth[0].queue.scheduler packetLengths:histogram:rangemin 480
scalar MldDemo.sender.eth[0].queue.scheduler packetLengths:histogram:rangemax 1160
scalar MldDemo.sender.eth[0].queue.scheduler packetLengths:histogram:underflows 0
scalar MldDemo.sender.eth[0].queue.scheduler packetLengths:histogram:overflows 0
scalar MldDemo.sender.eth[0].queue queueingTime:histogram:count 12
scalar MldDemo.sender.eth[0].queue queueingTime:histogram:sumweights 12
scalar MldDemo.sender.eth[0].queue queueingTime:histogram:mean 0
scalar MldDemo.sender.eth[0].queue queueingTime:histogram:stddev 0
scalar MldDemo.sender.eth[0].queue queueingTime:histogram:min 0
scalar MldDemo.sender.eth[0].queue queueingTime:histogram:max 0
[...]
scalar MldDemo.sender.eth[0].queue flowIncomingDataRate:vector:stddev 0
scalar MldDemo.sender.eth[0].queue flowIncomingDataRate:vector:min 0
scalar MldDemo.sender.eth[0].queue flowIncomingDataRate:vector:max 0
scalar MldDemo.sender.eth[0].queue flowIncomingDataRate:vector:starttime 0.1
scalar MldDemo.sender.eth[0].queue flowIncomingDataRate:vector:endtime 30
scalar MldDemo.sender.eth[0].queue flowOutgoingDataRate:vector:count 300
scalar MldDemo.sender.eth[0].queue flowOutgoingDataRate:vector:sum 0
scalar MldDemo.sender.eth[0].queue flowOutgoingDataRate:vector:sumweights 300
scalar MldDemo.sender.eth[0].queue flowOutgoingDataRate:vector:mean 0
scalar MldDemo.sender.eth[0].queue flowOutgoingDataRate:vector:stddev 0
scalar MldDemo.sender.eth[0].queue flowOutgoingDataRate:vector:min 0
scalar MldDemo.sender.eth[0].queue flowOutgoingDataRate:vector:max 0
scalar MldDemo.sender.eth[0].queue flowOutgoingDataRate:vector:starttime 0.1
scalar MldDemo.sender.eth[0].queue flowOutgoingDataRate:vector:endtime 30
scalar MldDemo.sender.eth[0].mac transmitting:vector:count 26
scalar MldDemo.sender.eth[0].mac transmitting:vector:sum 12
scalar MldDemo.sender.eth[0].mac transmitting:vector:sumweights 26
scalar MldDemo.sender.eth[0].mac transmitting:vector:mean 0.46153846153846156
scalar MldDemo.sender.eth[0].mac transmitting:vector:stddev 0.508391127441794
scalar MldDemo.sender.eth[0].mac transmitting:vector:min 0
scalar MldDemo.sender.eth[0].mac transmitting:vector:max 1
scalar MldDemo.sender.eth[0].mac transmitting:vector:starttime 0
scalar MldDemo.sender.eth[0].mac transmitting:vector:endtime 23.000011040000004
scalar MldDemo.sender.eth[0].mac throughput:vector:count 300
scalar MldDemo.sender.eth[0].mac throughput:vector:sum 124160.00000000001
scalar MldDemo.sender.eth[0].mac throughput:vector:sumweights 300
scalar MldDemo.sender.eth[0].mac throughput:vector:mean 413.86666666666673
scalar MldDemo.sender.eth[0].mac throughput:vector:stddev 2054.6902985524225
scalar MldDemo.sender.eth[0].mac throughput:vector:min 0
scalar MldDemo.sender.eth[0].mac throughput:vector:max 11040.000000000002
scalar MldDemo.sender.eth[0].mac throughput:vector:starttime 0.1
scalar MldDemo.sender.eth[0].mac throughput:vector:endtime 30
scalar MldDemo.sender.eth[0].mac utilization:vector:count 300
scalar MldDemo.sender.eth[0].mac utilization:vector:sum 0.12415999999999999
scalar MldDemo.sender.eth[0].mac utilization:vector:sumweights 300
scalar MldDemo.sender.eth[0].mac utilization:vector:mean 0.0004138666666666666
scalar MldDemo.sender.eth[0].mac utilization:vector:stddev 0.0020546902985524216
scalar MldDemo.sender.eth[0].mac utilization:vector:min 0
scalar MldDemo.sender.eth[0].mac utilization:vector:max 0.01104
scalar MldDemo.sender.eth[0].mac utilization:vector:starttime 0.1
scalar MldDemo.sender.eth[0].mac utilization:vector:endtime 30
scalar MldDemo.sender.eth[0].mac txPk:vector(packetBytes):count 12
scalar MldDemo.sender.eth[0].mac txPk:vector(packetBytes):sum 1456
scalar MldDemo.sender.eth[0].mac txPk:vector(packetBytes):sumweights 12
scalar MldDemo.sender.eth[0].mac txPk:vector(packetBytes):mean 121.33333333333333
scalar MldDemo.sender.eth[0].mac txPk:vector(packetBytes):stddev 20.312706875403414
scalar MldDemo.sender.eth[0].mac txPk:vector(packetBytes):min 74
scalar MldDemo.sender.eth[0].mac txPk:vector(packetBytes):max 130
scalar MldDemo.sender.eth[0].mac txPk:vector(packetBytes):starttime 0.8511836176700002
scalar MldDemo.sender.eth[0].mac txPk:vector(packetBytes):endtime 23.000011040000004
scalar MldDemo.sender.eth[0].mac rxPkOk:vector(packetBytes):count 19
scalar MldDemo.sender.eth[0].mac rxPkOk:vector(packetBytes):sum 1662
scalar MldDemo.sender.eth[0].mac rxPkOk:vector(packetBytes):sumweights 19
scalar MldDemo.sender.eth[0].mac rxPkOk:vector(packetBytes):mean 87.47368421052632
scalar MldDemo.sender.eth[0].mac rxPkOk:vector(packetBytes):stddev 15.561235387449988
scalar MldDemo.sender.eth[0].mac rxPkOk:vector(packetBytes):min 74
scalar MldDemo.sender.eth[0].mac rxPkOk:vector(packetBytes):max 122
scalar MldDemo.sender.eth[0].mac rxPkOk:vector(packetBytes):starttime 0.19377563452800003
scalar MldDemo.sender.eth[0].mac rxPkOk:vector(packetBytes):endtime 10.832642042840003
scalar MldDemo.sender.eth[0].mac passedUpPk:vector(packetBytes):count 19
scalar MldDemo.sender.eth[0].mac passedUpPk:vector(packetBytes):sum 1662
scalar MldDemo.sender.eth[0].mac passedUpPk:vector(packetBytes):sumweights 19
scalar MldDemo.sender.eth[0].mac passedUpPk:vector(packetBytes):mean 87.47368421052632
scalar MldDemo.sender.eth[0].mac passedUpPk:vector(packetBytes):stddev 15.561235387449988
scalar MldDemo.sender.eth[0].mac passedUpPk:vector(packetBytes):min 74
scalar MldDemo.sender.eth[0].mac passedUpPk:vector(packetBytes):max 122
scalar MldDemo.sender.eth[0].mac passedUpPk:vector(packetBytes):starttime 0.19377563452800003
scalar MldDemo.sender.eth[0].mac passedUpPk:vector(packetBytes):endtime 10.832642042840003
scalar MldDemo.sender.eth[0].mac txPausePkUnits:vector:count 0
scalar MldDemo.sender.eth[0].mac txPausePkUnits:vector:sum 0
scalar MldDemo.sender.eth[0].mac txPausePkUnits:vector:sumweights 0
scalar MldDemo.sender.eth[0].mac txPausePkUnits:vector:mean nan
scalar MldDemo.sender.eth[0].mac txPausePkUnits:vector:stddev nan
scalar MldDemo.sender.eth[0].mac txPausePkUnits:vector:min inf
scalar MldDemo.sender.eth[0].mac txPausePkUnits:vector:max -inf
scalar MldDemo.sender.eth[0].mac txPausePkUnits:vector:starttime nan
scalar MldDemo.sender.eth[0].mac txPausePkUnits:vector:endtime nan
scalar MldDemo.sender.eth[0].mac rxPausePkUnits:vector:count 0
scalar MldDemo.sender.eth[0].mac rxPausePkUnits:vector:sum 0
scalar MldDemo.sender.eth[0].mac rxPausePkUnits:vector:sumweights 0
scalar MldDemo.sender.eth[0].mac rxPausePkUnits:vector:mean nan
scalar MldDemo.sender.eth[0].mac rxPausePkUnits:vector:stddev nan
scalar MldDemo.sender.eth[0].mac rxPausePkUnits:vector:min inf
scalar MldDemo.sender.eth[0].mac rxPausePkUnits:vector:max -inf
scalar MldDemo.sender.eth[0].mac rxPausePkUnits:vector:starttime nan
scalar MldDemo.sender.eth[0].mac rxPausePkUnits:vector:endtime nan
scalar MldDemo.sender.eth[0].mac packetReceivedFromUpper:vector(packetBytes):count 12
scalar MldDemo.sender.eth[0].mac packetReceivedFromUpper:vector(packetBytes):sum 1456
scalar MldDemo.sender.eth[0].mac packetReceivedFromUpper:vector(packetBytes):sumweights 12
scalar MldDemo.sender.eth[0].mac packetReceivedFromUpper:vector(packetBytes):mean 121.33333333333333
scalar MldDemo.sender.eth[0].mac packetReceivedFromUpper:vector(packetBytes):stddev 20.312706875403414
scalar MldDemo.sender.eth[0].mac packetReceivedFromUpper:vector(packetBytes):min 74
scalar MldDemo.sender.eth[0].mac packetReceivedFromUpper:vector(packetBytes):max 130
scalar MldDemo.sender.eth[0].mac packetReceivedFromUpper:vector(packetBytes):starttime 0.8511770576700002
scalar MldDemo.sender.eth[0].mac packetReceivedFromUpper:vector(packetBytes):endtime 23
scalar MldDemo.sender.eth[0].mac packetDropIncorrectlyReceived:vector(packetBytes):count 0
scalar MldDemo.sender.eth[0].mac packetDropIncorrectlyReceived:vector(packetBytes):sum 0
scalar MldDemo.sender.eth[0].mac packetDropIncorrectlyReceived:vector(packetBytes):sumweights 0
scalar MldDemo.sender.eth[0].mac packetDropIncorrectlyReceived:vector(packetBytes):mean nan
scalar MldDemo.sender.eth[0].mac packetDropIncorrectlyReceived:vector(packetBytes):stddev nan
scalar MldDemo.sender.eth[0].mac packetDropIncorrectlyReceived:vector(packetBytes):min inf
scalar MldDemo.sender.eth[0].mac packetDropIncorrectlyReceived:vector(packetBytes):max -inf
scalar MldDemo.sender.eth[0].mac packetDropIncorrectlyReceived:vector(packetBytes):starttime nan
scalar MldDemo.sender.eth[0].mac packetDropIncorrectlyReceived:vector(packetBytes):endtime nan
scalar MldDemo.sender.eth[0].mac packetDropInterfaceDown:vector(packetBytes):count 0
scalar MldDemo.sender.eth[0].mac packetDropInterfaceDown:vector(packetBytes):sum 0
scalar MldDemo.sender.eth[0].mac packetDropInterfaceDown:vector(packetBytes):sumweights 0
scalar MldDemo.sender.eth[0].mac packetDropInterfaceDown:vector(packetBytes):mean nan
scalar MldDemo.sender.eth[0].mac packetDropInterfaceDown:vector(packetBytes):stddev nan
scalar MldDemo.sender.eth[0].mac packetDropInterfaceDown:vector(packetBytes):min inf
scalar MldDemo.sender.eth[0].mac packetDropInterfaceDown:vector(packetBytes):max -inf
scalar MldDemo.sender.eth[0].mac packetDropInterfaceDown:vector(packetBytes):starttime nan
scalar MldDemo.sender.eth[0].mac packetDropInterfaceDown:vector(packetBytes):endtime nan
scalar MldDemo.sender.eth[0].mac packetDropNotAddressedToUs:vector(packetBytes):count 0
scalar MldDemo.sender.eth[0].mac packetDropNotAddressedToUs:vector(packetBytes):sum 0
scalar MldDemo.sender.eth[0].mac packetDropNotAddressedToUs:vector(packetBytes):sumweights 0
scalar MldDemo.sender.eth[0].mac packetDropNotAddressedToUs:vector(packetBytes):mean nan
scalar MldDemo.sender.eth[0].mac packetDropNotAddressedToUs:vector(packetBytes):stddev nan
scalar MldDemo.sender.eth[0].mac packetDropNotAddressedToUs:vector(packetBytes):min inf
scalar MldDemo.sender.eth[0].mac packetDropNotAddressedToUs:vector(packetBytes):max -inf
scalar MldDemo.sender.eth[0].mac packetDropNotAddressedToUs:vector(packetBytes):starttime nan
scalar MldDemo.sender.eth[0].mac packetDropNotAddressedToUs:vector(packetBytes):endtime nan
scalar MldDemo.sender.eth[0] packetDropInterfaceDown:vector(packetBytes):count 0
scalar MldDemo.sender.eth[0] packetDropInterfaceDown:vector(packetBytes):sum 0
scalar MldDemo.sender.eth[0] packetDropInterfaceDown:vector(packetBytes):sumweights 0
scalar MldDemo.sender.eth[0] packetDropInterfaceDown:vector(packetBytes):mean nan
scalar MldDemo.sender.eth[0] packetDropInterfaceDown:vector(packetBytes):stddev nan
scalar MldDemo.sender.eth[0] packetDropInterfaceDown:vector(packetBytes):min inf
scalar MldDemo.sender.eth[0] packetDropInterfaceDown:vector(packetBytes):max -inf
scalar MldDemo.sender.eth[0] packetDropInterfaceDown:vector(packetBytes):starttime nan
scalar MldDemo.sender.eth[0] packetDropInterfaceDown:vector(packetBytes):endtime nan
scalar MldDemo.sender.eth[0] packetDropNoCarrier:vector(packetBytes):count 0
scalar MldDemo.sender.eth[0] packetDropNoCarrier:vector(packetBytes):sum 0
scalar MldDemo.sender.eth[0] packetDropNoCarrier:vector(packetBytes):sumweights 0
scalar MldDemo.sender.eth[0] packetDropNoCarrier:vector(packetBytes):mean nan
scalar MldDemo.sender.eth[0] packetDropNoCarrier:vector(packetBytes):stddev nan
scalar MldDemo.sender.eth[0] packetDropNoCarrier:vector(packetBytes):min inf
scalar MldDemo.sender.eth[0] packetDropNoCarrier:vector(packetBytes):max -inf
scalar MldDemo.sender.eth[0] packetDropNoCarrier:vector(packetBytes):starttime nan
scalar MldDemo.sender.eth[0] packetDropNoCarrier:vector(packetBytes):endtime nan
scalar MldDemo.sender.ipv6.neighbourDiscovery startDad:vector:count 1
scalar MldDemo.sender.ipv6.neighbourDiscovery startDad:vector:sum 1
scalar MldDemo.sender.ipv6.neighbourDiscovery startDad:vector:sumweights 1
scalar MldDemo.sender.ipv6.neighbourDiscovery startDad:vector:mean 1
scalar MldDemo.sender.ipv6.neighbourDiscovery startDad:vector:stddev nan
scalar MldDemo.sender.ipv6.neighbourDiscovery startDad:vector:min 1
scalar MldDemo.sender.ipv6.neighbourDiscovery startDad:vector:max 1
scalar MldDemo.sender.ipv6.neighbourDiscovery startDad:vector:starttime 1.2470569343840003
scalar MldDemo.sender.ipv6.neighbourDiscovery startDad:vector:endtime 1.2470569343840003
scalar MldDemo.sender.ipv6.neighbourDiscovery dadCompleted:vector:count 2
scalar MldDemo.sender.ipv6.neighbourDiscovery dadCompleted:vector:sum 2
scalar MldDemo.sender.ipv6.neighbourDiscovery dadCompleted:vector:sumweights 2
scalar MldDemo.sender.ipv6.neighbourDiscovery dadCompleted:vector:mean 1
scalar MldDemo.sender.ipv6.neighbourDiscovery dadCompleted:vector:stddev 0
scalar MldDemo.sender.ipv6.neighbourDiscovery dadCompleted:vector:min 1
scalar MldDemo.sender.ipv6.neighbourDiscovery dadCompleted:vector:max 1
scalar MldDemo.sender.ipv6.neighbourDiscovery dadCompleted:vector:starttime 0.578520763153
scalar MldDemo.sender.ipv6.neighbourDiscovery dadCompleted:vector:endtime 2.3180929930950005
scalar MldDemo.sender.ipv6.neighbourDiscovery dadFailed:vector:count 0
scalar MldDemo.sender.ipv6.neighbourDiscovery dadFailed:vector:sum 0
scalar MldDemo.sender.ipv6.neighbourDiscovery dadFailed:vector:sumweights 0
scalar MldDemo.sender.ipv6.neighbourDiscovery dadFailed:vector:mean nan
scalar MldDemo.sender.ipv6.neighbourDiscovery dadFailed:vector:stddev nan
scalar MldDemo.sender.ipv6.neighbourDiscovery dadFailed:vector:min inf
scalar MldDemo.sender.ipv6.neighbourDiscovery dadFailed:vector:max -inf
scalar MldDemo.sender.ipv6.neighbourDiscovery dadFailed:vector:starttime nan
scalar MldDemo.sender.ipv6.neighbourDiscovery dadFailed:vector:endtime nan
scalar MldDemo.sender.udp packetSent:vector(packetBytes):count 10
scalar MldDemo.sender.udp packetSent:vector(packetBytes):sum 720
scalar MldDemo.sender.udp packetSent:vector(packetBytes):sumweights 10
scalar MldDemo.sender.udp packetSent:vector(packetBytes):mean 72
scalar MldDemo.sender.udp packetSent:vector(packetBytes):stddev 0
scalar MldDemo.sender.udp packetSent:vector(packetBytes):min 72
scalar MldDemo.sender.udp packetSent:vector(packetBytes):max 72
scalar MldDemo.sender.udp packetSent:vector(packetBytes):starttime 5
scalar MldDemo.sender.udp packetSent:vector(packetBytes):endtime 23
scalar MldDemo.sender.udp outgoingDataRate:vector:count 300
scalar MldDemo.sender.udp outgoingDataRate:vector:sum 57600.00000000001
scalar MldDemo.sender.udp outgoingDataRate:vector:sumweights 300
scalar MldDemo.sender.udp outgoingDataRate:vector:mean 192.00000000000003
scalar MldDemo.sender.udp outgoingDataRate:vector:stddev 1035.6792158419955
scalar MldDemo.sender.udp outgoingDataRate:vector:min 0
scalar MldDemo.sender.udp outgoingDataRate:vector:max 5760.000000000001
scalar MldDemo.sender.udp outgoingDataRate:vector:starttime 0.1
scalar MldDemo.sender.udp outgoingDataRate:vector:endtime 30
scalar MldDemo.sender.udp packetReceived:vector(packetBytes):count 0
scalar MldDemo.sender.udp packetReceived:vector(packetBytes):sum 0
scalar MldDemo.sender.udp packetReceived:vector(packetBytes):sumweights 0
scalar MldDemo.sender.udp packetReceived:vector(packetBytes):mean nan
scalar MldDemo.sender.udp packetReceived:vector(packetBytes):stddev nan
scalar MldDemo.sender.udp packetReceived:vector(packetBytes):min inf
scalar MldDemo.sender.udp packetReceived:vector(packetBytes):max -inf
scalar MldDemo.sender.udp packetReceived:vector(packetBytes):starttime nan
scalar MldDemo.sender.udp packetReceived:vector(packetBytes):endtime nan
scalar MldDemo.sender.udp passedUpPk:vector(count):count 1
scalar MldDemo.sender.udp passedUpPk:vector(count):sum 0
scalar MldDemo.sender.udp passedUpPk:vector(count):sumweights 1
scalar MldDemo.sender.udp passedUpPk:vector(count):mean 0
scalar MldDemo.sender.udp passedUpPk:vector(count):stddev nan
scalar MldDemo.sender.udp passedUpPk:vector(count):min 0
scalar MldDemo.sender.udp passedUpPk:vector(count):max 0
scalar MldDemo.sender.udp passedUpPk:vector(count):starttime 0
scalar MldDemo.sender.udp passedUpPk:vector(count):endtime 0
scalar MldDemo.sender.udp droppedPkWrongPort:vector(count):count 1
scalar MldDemo.sender.udp droppedPkWrongPort:vector(count):sum 0
scalar MldDemo.sender.udp droppedPkWrongPort:vector(count):sumweights 1
scalar MldDemo.sender.udp droppedPkWrongPort:vector(count):mean 0
scalar MldDemo.sender.udp droppedPkWrongPort:vector(count):stddev nan
scalar MldDemo.sender.udp droppedPkWrongPort:vector(count):min 0
scalar MldDemo.sender.udp droppedPkWrongPort:vector(count):max 0
scalar MldDemo.sender.udp droppedPkWrongPort:vector(count):starttime 0
scalar MldDemo.sender.udp droppedPkWrongPort:vector(count):endtime 0
scalar MldDemo.sender.udp droppedPkBadChecksum:vector(count):count 1
scalar MldDemo.sender.udp droppedPkBadChecksum:vector(count):sum 0
scalar MldDemo.sender.udp droppedPkBadChecksum:vector(count):sumweights 1
scalar MldDemo.sender.udp droppedPkBadChecksum:vector(count):mean 0
scalar MldDemo.sender.udp droppedPkBadChecksum:vector(count):stddev nan
scalar MldDemo.sender.udp droppedPkBadChecksum:vector(count):min 0
scalar MldDemo.sender.udp droppedPkBadChecksum:vector(count):max 0
scalar MldDemo.sender.udp droppedPkBadChecksum:vector(count):starttime 0
scalar MldDemo.sender.udp droppedPkBadChecksum:vector(count):endtime 0
scalar MldDemo.sender.app[0] packetReceived:vector(packetBytes):count 0
scalar MldDemo.sender.app[0] packetReceived:vector(packetBytes):sum 0
scalar MldDemo.sender.app[0] packetReceived:vector(packetBytes):sumweights 0
scalar MldDemo.sender.app[0] packetReceived:vector(packetBytes):mean nan
scalar MldDemo.sender.app[0] packetReceived:vector(packetBytes):stddev nan
scalar MldDemo.sender.app[0] packetReceived:vector(packetBytes):min inf
scalar MldDemo.sender.app[0] packetReceived:vector(packetBytes):max -inf
scalar MldDemo.sender.app[0] packetReceived:vector(packetBytes):starttime nan
scalar MldDemo.sender.app[0] packetReceived:vector(packetBytes):endtime nan
scalar MldDemo.sender.app[0] throughput:vector:count 300
scalar MldDemo.sender.app[0] throughput:vector:sum 0
scalar MldDemo.sender.app[0] throughput:vector:sumweights 300
scalar MldDemo.sender.app[0] throughput:vector:mean 0
scalar MldDemo.sender.app[0] throughput:vector:stddev 0
scalar MldDemo.sender.app[0] throughput:vector:min 0
scalar MldDemo.sender.app[0] throughput:vector:max 0
scalar MldDemo.sender.app[0] throughput:vector:starttime 0.1
scalar MldDemo.sender.app[0] throughput:vector:endtime 30
scalar MldDemo.sender.app[0] packetSent:vector(packetBytes):count 10
scalar MldDemo.sender.app[0] packetSent:vector(packetBytes):sum 640
scalar MldDemo.sender.app[0] packetSent:vector(packetBytes):sumweights 10
scalar MldDemo.sender.app[0] packetSent:vector(packetBytes):mean 64
scalar MldDemo.sender.app[0] packetSent:vector(packetBytes):stddev 0
scalar MldDemo.sender.app[0] packetSent:vector(packetBytes):min 64
scalar MldDemo.sender.app[0] packetSent:vector(packetBytes):max 64
scalar MldDemo.sender.app[0] packetSent:vector(packetBytes):starttime 5
scalar MldDemo.sender.app[0] packetSent:vector(packetBytes):endtime 23
scalar MldDemo.sender.app[0] rcvdPkLifetime:vector:count 0
scalar MldDemo.sender.app[0] rcvdPkLifetime:vector:sum 0
scalar MldDemo.sender.app[0] rcvdPkLifetime:vector:sumweights 0
scalar MldDemo.sender.app[0] rcvdPkLifetime:vector:mean nan
scalar MldDemo.sender.app[0] rcvdPkLifetime:vector:stddev nan
scalar MldDemo.sender.app[0] rcvdPkLifetime:vector:min inf
scalar MldDemo.sender.app[0] rcvdPkLifetime:vector:max -inf
scalar MldDemo.sender.app[0] rcvdPkLifetime:vector:starttime nan
scalar MldDemo.sender.app[0] rcvdPkLifetime:vector:endtime nan
scalar MldDemo.sender.app[0] rcvdPkSeqNo:vector:count 0
scalar MldDemo.sender.app[0] rcvdPkSeqNo:vector:sum 0
scalar MldDemo.sender.app[0] rcvdPkSeqNo:vector:sumweights 0
scalar MldDemo.sender.app[0] rcvdPkSeqNo:vector:mean nan
scalar MldDemo.sender.app[0] rcvdPkSeqNo:vector:stddev nan
scalar MldDemo.sender.app[0] rcvdPkSeqNo:vector:min inf
scalar MldDemo.sender.app[0] rcvdPkSeqNo:vector:max -inf
scalar MldDemo.sender.app[0] rcvdPkSeqNo:vector:starttime nan
scalar MldDemo.sender.app[0] rcvdPkSeqNo:vector:endtime nan
scalar MldDemo.hub packetReceived:vector(packetBytes):count 31
scalar MldDemo.hub packetReceived:vector(packetBytes):sum 3366
scalar MldDemo.hub packetReceived:vector(packetBytes):sumweights 31
scalar MldDemo.hub packetReceived:vector(packetBytes):mean 108.58064516129032
scalar MldDemo.hub packetReceived:vector(packetBytes):stddev 24.034383971785633
scalar MldDemo.hub packetReceived:vector(packetBytes):min 82
scalar MldDemo.hub packetReceived:vector(packetBytes):max 138
scalar MldDemo.hub packetReceived:vector(packetBytes):starttime 0.19376833452800005
scalar MldDemo.hub packetReceived:vector(packetBytes):endtime 23.000000100000005

