version 3
run FramePreemption-0-20230411-10:34:01-43175
attr configname FramePreemption
attr datetime 20230411-10:34:01
attr datetimef 20230411-103401
attr description "Transmission of low priority frames are preempted by high priority frames"
attr experiment FramePreemption
attr inifile omnetpp.ini
attr iterationvars ""
attr iterationvarsd ""
attr iterationvarsf ""
attr measurement ""
attr network FramePreemptionShowcase
attr processid 43175
attr repetition 0
attr replication #0
attr resultdir results
attr runnumber 0
attr seedset 0
config **.param-recording false
config image-path /home/levy/workspace/inet/images
config sim-time-limit 1s
config description "Transmission of low priority frames are preempted by high priority frames"
config *.host*.eth[0].macLayer.typename EthernetPreemptingMacLayer
config *.host*.eth[0].phyLayer.typename EthernetPreemptingPhyLayer
config **.macLayer.*.queue.packetCapacity 4
config **.macLayer.*.queue.typename DropTailQueue
config network FramePreemptionShowcase
config sim-time-limit 1s
config *.*.ethernet.typename EthernetLayer
config *.host*.eth[0].typename LayeredEthernetInterface
config *.host*.eth[0].bitrate 100Mbps
config **.recordPcap true
config **.dumpProtocols "\"ethernetphy\""
config **.crcMode "\"computed\""
config **.fcsMode "\"computed\""
config **.arp.typename GlobalArp
config *.host1.numApps 2
config *.host1.app[*].typename UdpSourceApp
config *.host1.app[0].source.packetNameFormat "\"background-%c\""
config *.host1.app[1].source.packetNameFormat "\"ts-%c\""
config *.host1.app[*].tagger.typename PacketTagger
config *.host1.app[0].tagger.vlanId 1
config *.host1.app[1].tagger.vlanId 0
config *.host1.app[*].io.destAddress "\"host2\""
config *.host1.app[0].io.destPort 1000
config *.host1.app[1].io.destPort 1001
config *.host1.app[0].source.packetLength 1200B
config *.host1.app[0].source.productionInterval truncnormal(100us,50us)
config *.host1.app[0].source.initialProductionOffset 5us
config *.host1.app[1].source.packetLength 1200B
config *.host1.app[1].source.productionInterval truncnormal(1ms,500us)
config *.host2.numApps 2
config *.host2.app[*].typename UdpSinkApp
config *.host2.app[0].io.localPort 1000
config *.host2.app[1].io.localPort 1001

scalar FramePreemptionShowcase.host1.ethernet.macHeaderInserter outgoingPackets:count 10729
attr recordingmode count
attr source "merge(packetPushedOut, packetPulledOut)"
attr title "outgoing packets, count"
attr unit pk
scalar FramePreemptionShowcase.host1.ethernet.macHeaderInserter outgoingPacketLengths:sum 106603344
attr interpolationmode none
attr recordingmode sum
attr source "packetLength(merge(packetPushedOut, packetPulledOut))"
attr title "outgoing packet lengths, sum"
attr unit b
statistic FramePreemptionShowcase.host1.ethernet.macHeaderInserter outgoingPacketLengths:histogram
field count 10729
field mean 9936
field stddev 0
field min 9936
field max 9936
field sum 106603344
field sqrsum 1059210825984
attr interpolationmode none
attr recordingmode histogram
attr source "packetLength(merge(packetPushedOut, packetPulledOut))"
attr title "outgoing packet lengths"
attr unit b
bin	-inf	0
bin	9935	0
bin	9936	10729
bin	9937	0
scalar FramePreemptionShowcase.host1.ethernet.macHeaderInserter flowOutgoingPacketLengths:sum 0
attr interpolationmode none
attr recordingmode sum
attr source "packetLength(demuxFlow(merge(packetPushedOut, packetPulledOut)))"
attr title "flow specific outgoing packet lengths, sum"
attr unit b
statistic FramePreemptionShowcase.host1.ethernet.macHeaderInserter flowOutgoingPacketLengths:histogram
field count 0
field mean -nan
field stddev nan
field min nan
field max nan
field sum 0
field sqrsum 0
attr interpolationmode none
attr recordingmode histogram
attr source "packetLength(demuxFlow(merge(packetPushedOut, packetPulledOut)))"
attr title "flow specific outgoing packet lengths"
attr unit b
bin	-inf	0
bin	0	0
bin	1	0
scalar FramePreemptionShowcase.host1.ethernet.macHeaderInserter incomingPackets:count 10729
attr recordingmode count
attr source "merge(packetPushedIn, packetPulledIn)"
attr title "incoming packets, count"
attr unit pk
scalar FramePreemptionShowcase.host1.ethernet.macHeaderInserter incomingPacketLengths:sum 105401696
attr interpolationmode none
attr recordingmode sum
attr source "packetLength(merge(packetPushedIn, packetPulledIn))"
attr title "incoming packet lengths, sum"
attr unit b
statistic FramePreemptionShowcase.host1.ethernet.macHeaderInserter incomingPacketLengths:histogram
field count 10729
field mean 9824
field stddev 0
field min 9824
field max 9824
field sum 105401696
field sqrsum 1035466261504
attr interpolationmode none
attr recordingmode histogram
attr source "packetLength(merge(packetPushedIn, packetPulledIn))"
attr title "incoming packet lengths"
attr unit b
bin	-inf	0
bin	9823	0
bin	9824	10729
bin	9825	0
scalar FramePreemptionShowcase.host1.ethernet.macHeaderInserter flowIncomingPacketLengths:sum 0
attr interpolationmode none
attr recordingmode sum
attr source "packetLength(demuxFlow(merge(packetPushedIn, packetPulledIn)))"
attr title "flow specific incoming packet lengths, sum"
attr unit b
statistic FramePreemptionShowcase.host1.ethernet.macHeaderInserter flowIncomingPacketLengths:histogram
field count 0
field mean -nan
field stddev nan
field min nan
field max nan
field sum 0
field sqrsum 0
attr interpolationmode none
attr recordingmode histogram
attr source "packetLength(demuxFlow(merge(packetPushedIn, packetPulledIn)))"
attr title "flow specific incoming packet lengths"
attr unit b
bin	-inf	0
bin	0	0
bin	1	0
scalar FramePreemptionShowcase.host1.ethernet.paddingInserter outgoingPackets:count 10729
attr recordingmode count
attr source "merge(packetPushedOut, packetPulledOut)"
attr title "outgoing packets, count"
attr unit pk
scalar FramePreemptionShowcase.host1.ethernet.paddingInserter outgoingPacketLengths:sum 106603344
attr interpolationmode none
attr recordingmode sum
attr source "packetLength(merge(packetPushedOut, packetPulledOut))"
attr title "outgoing packet lengths, sum"
attr unit b
statistic FramePreemptionShowcase.host1.ethernet.paddingInserter outgoingPacketLengths:histogram
field count 10729
field mean 9936
field stddev 0
field min 9936
field max 9936
field sum 106603344
field sqrsum 1059210825984
attr interpolationmode none
attr recordingmode histogram
attr source "packetLength(merge(packetPushedOut, packetPulledOut))"
attr title "outgoing packet lengths"
attr unit b
bin	-inf	0
bin	9935	0
bin	9936	10729
bin	9937	0
scalar FramePreemptionShowcase.host1.ethernet.paddingInserter flowOutgoingPacketLengths:sum 0
attr interpolationmode none
attr recordingmode sum
attr source "packetLength(demuxFlow(merge(packetPushedOut, packetPulledOut)))"
attr title "flow specific outgoing packet lengths, sum"
attr unit b
statistic FramePreemptionShowcase.host1.ethernet.paddingInserter flowOutgoingPacketLengths:histogram
field count 0
field mean -nan
field stddev nan
field min nan
field max nan
field sum 0
field sqrsum 0
attr interpolationmode none
attr recordingmode histogram
attr source "packetLength(demuxFlow(merge(packetPushedOut, packetPulledOut)))"
attr title "flow specific outgoing packet lengths"
attr unit b
bin	-inf	0
bin	0	0
bin	1	0
scalar FramePreemptionShowcase.host1.ethernet.paddingInserter incomingPackets:count 10729
attr recordingmode count
attr source "merge(packetPushedIn, packetPulledIn)"
attr title "incoming packets, count"
attr unit pk
scalar FramePreemptionShowcase.host1.ethernet.paddingInserter incomingPacketLengths:sum 106603344
attr interpolationmode none
attr recordingmode sum
attr source "packetLength(merge(packetPushedIn, packetPulledIn))"
attr title "incoming packet lengths, sum"
attr unit b
statistic FramePreemptionShowcase.host1.ethernet.paddingInserter incomingPacketLengths:histogram
field count 10729
field mean 9936
field stddev 0
field min 9936
field max 9936
field sum 106603344
field sqrsum 1059210825984
attr interpolationmode none
attr recordingmode histogram
attr source "packetLength(merge(packetPushedIn, packetPulledIn))"
attr title "incoming packet lengths"
attr unit b
bin	-inf	0
bin	9935	0
bin	9936	10729
bin	9937	0
scalar FramePreemptionShowcase.host1.ethernet.paddingInserter flowIncomingPacketLengths:sum 0
attr interpolationmode none
attr recordingmode sum
attr source "packetLength(demuxFlow(merge(packetPushedIn, packetPulledIn)))"
attr title "flow specific incoming packet lengths, sum"
attr unit b
statistic FramePreemptionShowcase.host1.ethernet.paddingInserter flowIncomingPacketLengths:histogram
field count 0
field mean -nan
field stddev nan
field min nan
field max nan
field sum 0
field sqrsum 0
attr interpolationmode none
attr recordingmode histogram
attr source "packetLength(demuxFlow(merge(packetPushedIn, packetPulledIn)))"
attr title "flow specific incoming packet lengths"
attr unit b
bin	-inf	0
bin	0	0
bin	1	0
scalar FramePreemptionShowcase.host1.ethernet.fcsInserter outgoingPackets:count 10729
attr recordingmode count
attr source "merge(packetPushedOut, packetPulledOut)"
attr title "outgoing packets, count"
attr unit pk
scalar FramePreemptionShowcase.host1.ethernet.fcsInserter outgoingPacketLengths:sum 106946672
attr interpolationmode none
attr recordingmode sum
attr source "packetLength(merge(packetPushedOut, packetPulledOut))"
attr title "outgoing packet lengths, sum"
attr unit b
statistic FramePreemptionShowcase.host1.ethernet.fcsInserter outgoingPacketLengths:histogram
field count 10729
field mean 9968
field stddev 0
field min 9968
field max 9968
field sum 106946672
field sqrsum 1066044426496
attr interpolationmode none
attr recordingmode histogram
attr source "packetLength(merge(packetPushedOut, packetPulledOut))"
attr title "outgoing packet lengths"
attr unit b
bin	-inf	0
bin	9967	0
bin	9968	10729
bin	9969	0
scalar FramePreemptionShowcase.host1.ethernet.fcsInserter flowOutgoingPacketLengths:sum 0
attr interpolationmode none
attr recordingmode sum
attr source "packetLength(demuxFlow(merge(packetPushedOut, packetPulledOut)))"
attr title "flow specific outgoing packet lengths, sum"
attr unit b
statistic FramePreemptionShowcase.host1.ethernet.fcsInserter flowOutgoingPacketLengths:histogram
field count 0
field mean -nan
field stddev nan
field min nan
field max nan
field sum 0
field sqrsum 0
attr interpolationmode none
attr recordingmode histogram
attr source "packetLength(demuxFlow(merge(packetPushedOut, packetPulledOut)))"
attr title "flow specific outgoing packet lengths"
attr unit b
bin	-inf	0
bin	0	0
bin	1	0
scalar FramePreemptionShowcase.host1.ethernet.fcsInserter incomingPackets:count 10729
attr recordingmode count
attr source "merge(packetPushedIn, packetPulledIn)"
attr title "incoming packets, count"
attr unit pk
scalar FramePreemptionShowcase.host1.ethernet.fcsInserter incomingPacketLengths:sum 106603344
attr interpolationmode none
attr recordingmode sum
attr source "packetLength(merge(packetPushedIn, packetPulledIn))"
attr title "incoming packet lengths, sum"
attr unit b
statistic FramePreemptionShowcase.host1.ethernet.fcsInserter incomingPacketLengths:histogram
field count 10729
field mean 9936
field stddev 0
field min 9936
field max 9936
field sum 106603344
field sqrsum 1059210825984
attr interpolationmode none
attr recordingmode histogram
attr source "packetLength(merge(packetPushedIn, packetPulledIn))"
attr title "incoming packet lengths"
attr unit b
bin	-inf	0
bin	9935	0
bin	9936	10729
bin	9937	0
scalar FramePreemptionShowcase.host1.ethernet.fcsInserter flowIncomingPacketLengths:sum 0
attr interpolationmode none
attr recordingmode sum
attr source "packetLength(demuxFlow(merge(packetPushedIn, packetPulledIn)))"
attr title "flow specific incoming packet lengths, sum"
attr unit b
statistic FramePreemptionShowcase.host1.ethernet.fcsInserter flowIncomingPacketLengths:histogram
field count 0
field mean -nan
field stddev nan
field min nan
field max nan
field sum 0
field sqrsum 0
attr interpolationmode none
attr recordingmode histogram
attr source "packetLength(demuxFlow(merge(packetPushedIn, packetPulledIn)))"
attr title "flow specific incoming packet lengths"
attr unit b
bin	-inf	0
bin	0	0
bin	1	0
scalar FramePreemptionShowcase.host1.ethernet.macHeaderChecker outgoingPackets:count 0
attr recordingmode count
attr source "merge(packetPushedOut, packetPulledOut)"
attr title "outgoing packets, count"
attr unit pk
scalar FramePreemptionShowcase.host1.ethernet.macHeaderChecker outgoingPacketLengths:sum 0
attr interpolationmode none
attr recordingmode sum
attr source "packetLength(merge(packetPushedOut, packetPulledOut))"
attr title "outgoing packet lengths, sum"
attr unit b
statistic FramePreemptionShowcase.host1.ethernet.macHeaderChecker outgoingPacketLengths:histogram
field count 0
field mean -nan
field stddev nan
field min nan
field max nan
field sum 0
field sqrsum 0
attr interpolationmode none
attr recordingmode histogram
attr source "packetLength(merge(packetPushedOut, packetPulledOut))"
attr title "outgoing packet lengths"
attr unit b
bin	-inf	0
bin	0	0
bin	1	0
scalar FramePreemptionShowcase.host1.ethernet.macHeaderChecker flowOutgoingPacketLengths:sum 0
attr interpolationmode none
attr recordingmode sum
attr source "packetLength(demuxFlow(merge(packetPushedOut, packetPulledOut)))"
attr title "flow specific outgoing packet lengths, sum"
attr unit b
statistic FramePreemptionShowcase.host1.ethernet.macHeaderChecker flowOutgoingPacketLengths:histogram
field count 0
field mean -nan
field stddev nan
field min nan
field max nan
field sum 0
field sqrsum 0
attr interpolationmode none
attr recordingmode histogram
attr source "packetLength(demuxFlow(merge(packetPushedOut, packetPulledOut)))"
attr title "flow specific outgoing packet lengths"
attr unit b
bin	-inf	0
bin	0	0
bin	1	0
scalar FramePreemptionShowcase.host1.ethernet.macHeaderChecker incomingPackets:count 0
attr recordingmode count
attr source "merge(packetPushedIn, packetPulledIn)"
attr title "incoming packets, count"
attr unit pk
scalar FramePreemptionShowcase.host1.ethernet.macHeaderChecker incomingPacketLengths:sum 0
attr interpolationmode none
attr recordingmode sum
attr source "packetLength(merge(packetPushedIn, packetPulledIn))"
attr title "incoming packet lengths, sum"
attr unit b
statistic FramePreemptionShowcase.host1.ethernet.macHeaderChecker incomingPacketLengths:histogram
field count 0
field mean -nan
field stddev nan
field min nan
field max nan
field sum 0
field sqrsum 0
attr interpolationmode none
attr recordingmode histogram
attr source "packetLength(merge(packetPushedIn, packetPulledIn))"
attr title "incoming packet lengths"
attr unit b
bin	-inf	0
bin	0	0
bin	1	0
scalar FramePreemptionShowcase.host1.ethernet.macHeaderChecker flowIncomingPacketLengths:sum 0
attr interpolationmode none
attr recordingmode sum
attr source "packetLength(demuxFlow(merge(packetPushedIn, packetPulledIn)))"
attr title "flow specific incoming packet lengths, sum"
attr unit b
statistic FramePreemptionShowcase.host1.ethernet.macHeaderChecker flowIncomingPacketLengths:histogram
field count 0
field mean -nan
field stddev nan
field min nan
field max nan
field sum 0
field sqrsum 0
attr interpolationmode none
attr recordingmode histogram
attr source "packetLength(demuxFlow(merge(packetPushedIn, packetPulledIn)))"
attr title "flow specific incoming packet lengths"
attr unit b
bin	-inf	0
bin	0	0
bin	1	0
scalar FramePreemptionShowcase.host1.ethernet.macHeaderChecker droppedPackets:count 0
attr recordingmode count
attr source packetDropped
attr title "dropped packets, count"
attr unit pk
scalar FramePreemptionShowcase.host1.ethernet.macHeaderChecker droppedPacketLengths:sum 0
attr interpolationmode none
attr recordingmode sum
attr source packetLength(packetDropped)
attr title "dropped packet lengths, sum"
attr unit b
statistic FramePreemptionShowcase.host1.ethernet.macHeaderChecker droppedPacketLengths:histogram
field count 0
field mean -nan
field stddev nan
field min nan
field max nan
field sum 0
field sqrsum 0
attr interpolationmode none
attr recordingmode histogram
attr source packetLength(packetDropped)
attr title "dropped packet lengths"
attr unit b
bin	-inf	0
bin	0	0
bin	1	0
scalar FramePreemptionShowcase.host1.ethernet.macHeaderChecker flowDroppedPacketLengths:sum 0
attr interpolationmode none
attr recordingmode sum
attr source packetLength(demuxFlow(packetDropped))
attr title "flow specific dropped packet lengths, sum"
attr unit b
statistic FramePreemptionShowcase.host1.ethernet.macHeaderChecker flowDroppedPacketLengths:histogram
field count 0
field mean -nan
field stddev nan
field min nan
field max nan
field sum 0
field sqrsum 0
attr interpolationmode none
attr recordingmode histogram
attr source packetLength(demuxFlow(packetDropped))
attr title "flow specific dropped packet lengths"
attr unit b
bin	-inf	0
bin	0	0
bin	1	0
scalar FramePreemptionShowcase.host1.ethernet.fcsChecker outgoingPackets:count 0
attr recordingmode count
attr source "merge(packetPushedOut, packetPulledOut)"
attr title "outgoing packets, count"
attr unit pk
scalar FramePreemptionShowcase.host1.ethernet.fcsChecker outgoingPacketLengths:sum 0
attr interpolationmode none
attr recordingmode sum
attr source "packetLength(merge(packetPushedOut, packetPulledOut))"
attr title "outgoing packet lengths, sum"
attr unit b
statistic FramePreemptionShowcase.host1.ethernet.fcsChecker outgoingPacketLengths:histogram
field count 0
field mean -nan
field stddev nan
field min nan
field max nan
field sum 0
field sqrsum 0
attr interpolationmode none
attr recordingmode histogram
attr source "packetLength(merge(packetPushedOut, packetPulledOut))"
attr title "outgoing packet lengths"
attr unit b
bin	-inf	0
bin	0	0
bin	1	0
scalar FramePreemptionShowcase.host1.ethernet.fcsChecker flowOutgoingPacketLengths:sum 0
attr interpolationmode none
attr recordingmode sum
attr source "packetLength(demuxFlow(merge(packetPushedOut, packetPulledOut)))"
attr title "flow specific outgoing packet lengths, sum"
attr unit b
statistic FramePreemptionShowcase.host1.ethernet.fcsChecker flowOutgoingPacketLengths:histogram
field count 0
field mean -nan
field stddev nan
field min nan
field max nan
field sum 0
field sqrsum 0
attr interpolationmode none
attr recordingmode histogram
attr source "packetLength(demuxFlow(merge(packetPushedOut, packetPulledOut)))"
attr title "flow specific outgoing packet lengths"
attr unit b
bin	-inf	0
bin	0	0
bin	1	0
scalar FramePreemptionShowcase.host1.ethernet.fcsChecker incomingPackets:count 0
attr recordingmode count
attr source "merge(packetPushedIn, packetPulledIn)"
attr title "incoming packets, count"
attr unit pk
scalar FramePreemptionShowcase.host1.ethernet.fcsChecker incomingPacketLengths:sum 0
attr interpolationmode none
attr recordingmode sum
attr source "packetLength(merge(packetPushedIn, packetPulledIn))"
attr title "incoming packet lengths, sum"
attr unit b
statistic FramePreemptionShowcase.host1.ethernet.fcsChecker incomingPacketLengths:histogram
field count 0
field mean -nan
field stddev nan
field min nan
field max nan
field sum 0
field sqrsum 0
attr interpolationmode none
attr recordingmode histogram
attr source "packetLength(merge(packetPushedIn, packetPulledIn))"
attr title "incoming packet lengths"
attr unit b
bin	-inf	0
bin	0	0
bin	1	0
scalar FramePreemptionShowcase.host1.ethernet.fcsChecker flowIncomingPacketLengths:sum 0
attr interpolationmode none
attr recordingmode sum
attr source "packetLength(demuxFlow(merge(packetPushedIn, packetPulledIn)))"
attr title "flow specific incoming packet lengths, sum"
attr unit b
statistic FramePreemptionShowcase.host1.ethernet.fcsChecker flowIncomingPacketLengths:histogram
field count 0
field mean -nan
field stddev nan
field min nan
field max nan
field sum 0
field sqrsum 0
attr interpolationmode none
attr recordingmode histogram
attr source "packetLength(demuxFlow(merge(packetPushedIn, packetPulledIn)))"
attr title "flow specific incoming packet lengths"
attr unit b
bin	-inf	0
bin	0	0
bin	1	0
scalar FramePreemptionShowcase.host1.ethernet.fcsChecker droppedPackets:count 0
attr recordingmode count
attr source packetDropped
attr title "dropped packets, count"
attr unit pk
scalar FramePreemptionShowcase.host1.ethernet.fcsChecker droppedPacketLengths:sum 0
attr interpolationmode none
attr recordingmode sum
attr source packetLength(packetDropped)
attr title "dropped packet lengths, sum"
attr unit b
statistic FramePreemptionShowcase.host1.ethernet.fcsChecker droppedPacketLengths:histogram
field count 0
field mean -nan
field stddev nan
field min nan
field max nan
field sum 0
field sqrsum 0
attr interpolationmode none
attr recordingmode histogram
attr source packetLength(packetDropped)
attr title "dropped packet lengths"
attr unit b
bin	-inf	0
bin	0	0
bin	1	0
scalar FramePreemptionShowcase.host1.ethernet.fcsChecker flowDroppedPacketLengths:sum 0
attr interpolationmode none
attr recordingmode sum
attr source packetLength(demuxFlow(packetDropped))
attr title "flow specific dropped packet lengths, sum"
attr unit b
statistic FramePreemptionShowcase.host1.ethernet.fcsChecker flowDroppedPacketLengths:histogram
field count 0
field mean -nan
field stddev nan
field min nan
field max nan
field sum 0
field sqrsum 0
attr interpolationmode none
attr recordingmode histogram
attr source packetLength(demuxFlow(packetDropped))
attr title "flow specific dropped packet lengths"
attr unit b
bin	-inf	0
bin	0	0
bin	1	0
scalar FramePreemptionShowcase.host1.lo[0].lo rcvdPkFromHl:count 0
attr interpolationmode none
attr recordingmode count
attr source packetReceivedFromUpper
attr title "packets received from higher layer, count"
scalar FramePreemptionShowcase.host1.lo[0].lo rcvdPkFromHl:sum(packetBytes) 0
attr interpolationmode none
attr recordingmode sum(packetBytes)
attr source packetReceivedFromUpper
attr title "packets received from higher layer, sum(packetBytes)"
scalar FramePreemptionShowcase.host1.lo[0].lo passedUpPk:count 0
attr interpolationmode none
attr recordingmode count
attr source packetSentToUpper
attr title "packets passed to higher layer, count"
scalar FramePreemptionShowcase.host1.lo[0].lo passedUpPk:sum(packetBytes) 0
attr interpolationmode none
attr recordingmode sum(packetBytes)
attr source packetSentToUpper
attr title "packets passed to higher layer, sum(packetBytes)"
scalar FramePreemptionShowcase.host1.lo[0] packetDropInterfaceDown:count 0
attr interpolationmode none
attr recordingmode count
attr source packetDropReasonIsInterfaceDown(packetDropped)
attr title "packet drops: interface down, count"
scalar FramePreemptionShowcase.host1.lo[0] packetDropInterfaceDown:sum(packetBytes) 0
attr interpolationmode none
attr recordingmode sum(packetBytes)
attr source packetDropReasonIsInterfaceDown(packetDropped)
attr title "packet drops: interface down, sum(packetBytes)"
scalar FramePreemptionShowcase.host1.lo[0] packetDropNoCarrier:count 0
attr interpolationmode none
attr recordingmode count
attr source packetDropReasonIsNoCarrier(packetDropped)
attr title "packet drops: no carrier, count"
scalar FramePreemptionShowcase.host1.lo[0] packetDropNoCarrier:sum(packetBytes) 0
attr interpolationmode none
attr recordingmode sum(packetBytes)
attr source packetDropReasonIsNoCarrier(packetDropped)
attr title "packet drops: no carrier, sum(packetBytes)"
scalar FramePreemptionShowcase.host1.eth[0].macLayer.outboundClassifier packets:count 10729
attr recordingmode count
attr source packetPushed
attr title "packets, count"
attr unit pk
scalar FramePreemptionShowcase.host1.eth[0].macLayer.outboundClassifier packetLengths:sum 106946672
attr interpolationmode none
attr recordingmode sum
attr source packetLength(packetPushed)
attr title "packet lengths, sum"
attr unit b
statistic FramePreemptionShowcase.host1.eth[0].macLayer.outboundClassifier packetLengths:histogram
field count 10729
field mean 9968
field stddev 0
field min 9968
field max 9968
field sum 106946672
field sqrsum 1066044426496
attr interpolationmode none
attr recordingmode histogram
attr source packetLength(packetPushed)
attr title "packet lengths"
attr unit b
bin	-inf	0
bin	9967	0
bin	9968	10729
bin	9969	0
scalar FramePreemptionShowcase.host1.eth[0].macLayer.expressMacLayer.queue queueLength:last 0
attr autoWarmupFilter false
attr interpolationmode sample-hold
attr recordingmode last
attr source "warmup(atomic(constant0(packetPushEnded) + count(packetPushStarted) - count(packetPulled) - count(packetRemoved) - count(packetDropped)))"
attr title "queue length, last"
attr unit pk
scalar FramePreemptionShowcase.host1.eth[0].macLayer.expressMacLayer.queue queueLength:max 1
attr autoWarmupFilter false
attr interpolationmode sample-hold
attr recordingmode max
attr source "warmup(atomic(constant0(packetPushEnded) + count(packetPushStarted) - count(packetPulled) - count(packetRemoved) - count(packetDropped)))"
attr title "queue length, max"
attr unit pk
scalar FramePreemptionShowcase.host1.eth[0].macLayer.expressMacLayer.queue queueLength:timeavg 0.002975282524
attr autoWarmupFilter false
attr interpolationmode sample-hold
attr recordingmode timeavg
attr source "warmup(atomic(constant0(packetPushEnded) + count(packetPushStarted) - count(packetPulled) - count(packetRemoved) - count(packetDropped)))"
attr title "queue length, timeavg"
attr unit pk
scalar FramePreemptionShowcase.host1.eth[0].macLayer.expressMacLayer.queue queueBitLength:last 0
attr autoWarmupFilter false
attr interpolationmode sample-hold
attr recordingmode last
attr source "warmup(atomic(constant0(packetPushEnded) + sum(packetLength(packetPushStarted)) - sum(packetLength(packetPulled)) - sum(packetLength(packetRemoved)) - sum(packetLength(packetDropped))))"
attr title "queue bit length, last"
attr unit b
scalar FramePreemptionShowcase.host1.eth[0].macLayer.expressMacLayer.queue queueBitLength:max 9968
attr autoWarmupFilter false
attr interpolationmode sample-hold
attr recordingmode max
attr source "warmup(atomic(constant0(packetPushEnded) + sum(packetLength(packetPushStarted)) - sum(packetLength(packetPulled)) - sum(packetLength(packetRemoved)) - sum(packetLength(packetDropped))))"
attr title "queue bit length, max"
attr unit b
scalar FramePreemptionShowcase.host1.eth[0].macLayer.expressMacLayer.queue queueBitLength:timeavg 29.657616199232
attr autoWarmupFilter false
attr interpolationmode sample-hold
attr recordingmode timeavg
attr source "warmup(atomic(constant0(packetPushEnded) + sum(packetLength(packetPushStarted)) - sum(packetLength(packetPulled)) - sum(packetLength(packetRemoved)) - sum(packetLength(packetDropped))))"
attr title "queue bit length, timeavg"
attr unit b
statistic FramePreemptionShowcase.host1.eth[0].macLayer.expressMacLayer.queue queueingTime:histogram
field count 993
field mean 2.9962563182276e-06
field stddev 7.9774115321658e-06
field min 0
field max 9.9395725e-05
field sum 0.002975282524
field sqrsum 7.2044691056551e-08
attr interpolationmode none
attr recordingmode histogram
attr source queueingTime(packetPulled)
attr title "queueing times"
attr unit s
bin	-inf	0
bin	0	899
bin	2e-06	34
bin	4e-06	34
bin	6e-06	11
bin	8e-06	0
bin	1e-05	0
bin	1.2e-05	0
bin	1.4e-05	1
bin	1.6e-05	0
bin	1.8e-05	0
bin	2e-05	0
bin	2.2e-05	0
bin	2.4e-05	0
bin	2.6e-05	2
bin	2.8e-05	0
bin	3e-05	0
bin	3.2e-05	0
bin	3.4e-05	1
bin	3.6e-05	0
bin	3.8e-05	1
bin	4e-05	1
bin	4.2e-05	0
bin	4.4e-05	0
bin	4.6e-05	0
bin	4.8e-05	1
bin	5e-05	1
bin	5.2e-05	0
bin	5.4e-05	0
bin	5.6e-05	0
bin	5.8e-05	0
bin	6e-05	0
bin	6.2e-05	0
bin	6.4e-05	0
bin	6.6e-05	0
bin	6.8e-05	0
bin	7e-05	0
bin	7.2e-05	0
bin	7.4e-05	0
bin	7.6e-05	1
bin	7.8e-05	0
bin	8e-05	0
bin	8.2e-05	2
bin	8.4e-05	0
bin	8.6e-05	0
bin	8.8e-05	0
bin	9e-05	1
bin	9.2e-05	0
bin	9.4e-05	2
bin	9.6e-05	0
bin	9.8e-05	1
bin	0.0001	0
scalar FramePreemptionShowcase.host1.eth[0].macLayer.expressMacLayer.queue outgoingPackets:count 993
attr recordingmode count
attr source packetPulled
attr title "outgoing packets, count"
attr unit pk
scalar FramePreemptionShowcase.host1.eth[0].macLayer.expressMacLayer.queue outgoingPacketLengths:sum 9898224
attr interpolationmode none
attr recordingmode sum
attr source packetLength(packetPulled)
attr title "outgoing packet lengths, sum"
attr unit b
statistic FramePreemptionShowcase.host1.eth[0].macLayer.expressMacLayer.queue outgoingPacketLengths:histogram
field count 993
field mean 9968
field stddev 0
field min 9968
field max 9968
field sum 9898224
field sqrsum 98665496832
attr interpolationmode none
attr recordingmode histogram
attr source packetLength(packetPulled)
attr title "outgoing packet lengths"
attr unit b
bin	-inf	0
bin	9967	0
bin	9968	993
bin	9969	0
statistic FramePreemptionShowcase.host1.eth[0].macLayer.expressMacLayer.queue flowQueueingTime:histogram
field count 0
field mean -nan
field stddev nan
field min nan
field max nan
field sum 0
field sqrsum 0
attr interpolationmode none
attr recordingmode histogram
attr source queueingTime(demuxFlow(packetPulled))
attr title "flow queueing times"
attr unit s
bin	-inf	0
bin	0	0
bin	1	0
scalar FramePreemptionShowcase.host1.eth[0].macLayer.expressMacLayer.queue incomingPackets:count 993
attr recordingmode count
attr source packetPushStarted
attr title "incoming packets, count"
attr unit pk
scalar FramePreemptionShowcase.host1.eth[0].macLayer.expressMacLayer.queue incomingPacketLengths:sum 9898224
attr interpolationmode none
attr recordingmode sum
attr source packetLength(packetPushStarted)
attr title "incoming packet lengths, sum"
attr unit b
statistic FramePreemptionShowcase.host1.eth[0].macLayer.expressMacLayer.queue incomingPacketLengths:histogram
field count 993
field mean 9968
field stddev 0
field min 9968
field max 9968
field sum 9898224
field sqrsum 98665496832
attr interpolationmode none
attr recordingmode histogram
attr source packetLength(packetPushStarted)
attr title "incoming packet lengths"
attr unit b
bin	-inf	0
bin	9967	0
bin	9968	993
bin	9969	0
scalar FramePreemptionShowcase.host1.eth[0].macLayer.expressMacLayer.queue droppedPacketsQueueOverflow:count 0
attr interpolationmode none
attr recordingmode count
attr source packetDropReasonIsQueueOverflow(packetDropped)
attr title "dropped packets: queue overflow, count"
attr unit pk
scalar FramePreemptionShowcase.host1.eth[0].macLayer.expressMacLayer.queue droppedPacketLengthsQueueOverflow:sum 0
attr interpolationmode none
attr recordingmode sum
attr source packetLength(packetDropReasonIsQueueOverflow(packetDropped))
attr title "dropped packet lengths: queue overflow, sum"
attr unit b
scalar FramePreemptionShowcase.host1.eth[0].macLayer.expressMacLayer.outboundEmitter outgoingPackets:count 1986
attr recordingmode count
attr source "merge(packetPushedOut, packetPulledOut)"
attr title "outgoing packets, count"
attr unit pk
scalar FramePreemptionShowcase.host1.eth[0].macLayer.expressMacLayer.outboundEmitter outgoingPacketLengths:sum 19796448
attr interpolationmode none
attr recordingmode sum
attr source "packetLength(merge(packetPushedOut, packetPulledOut))"
attr title "outgoing packet lengths, sum"
attr unit b
statistic FramePreemptionShowcase.host1.eth[0].macLayer.expressMacLayer.outboundEmitter outgoingPacketLengths:histogram
field count 1986
field mean 9968
field stddev 0
field min 9968
field max 9968
field sum 19796448
field sqrsum 197330993664
attr interpolationmode none
attr recordingmode histogram
attr source "packetLength(merge(packetPushedOut, packetPulledOut))"
attr title "outgoing packet lengths"
attr unit b
bin	-inf	0
bin	9967	0
bin	9968	1986
bin	9969	0
scalar FramePreemptionShowcase.host1.eth[0].macLayer.expressMacLayer.outboundEmitter flowOutgoingPacketLengths:sum 0
attr interpolationmode none
attr recordingmode sum
attr source "packetLength(demuxFlow(merge(packetPushedOut, packetPulledOut)))"
attr title "flow specific outgoing packet lengths, sum"
attr unit b
statistic FramePreemptionShowcase.host1.eth[0].macLayer.expressMacLayer.outboundEmitter flowOutgoingPacketLengths:histogram
field count 0
field mean -nan
field stddev nan
field min nan
field max nan
field sum 0
field sqrsum 0
attr interpolationmode none
attr recordingmode histogram
attr source "packetLength(demuxFlow(merge(packetPushedOut, packetPulledOut)))"
attr title "flow specific outgoing packet lengths"
attr unit b
bin	-inf	0
bin	0	0
bin	1	0
scalar FramePreemptionShowcase.host1.eth[0].macLayer.expressMacLayer.outboundEmitter incomingPackets:count 1986
attr recordingmode count
attr source "merge(packetPushedIn, packetPulledIn)"
attr title "incoming packets, count"
attr unit pk
scalar FramePreemptionShowcase.host1.eth[0].macLayer.expressMacLayer.outboundEmitter incomingPacketLengths:sum 19796448
attr interpolationmode none
attr recordingmode sum
attr source "packetLength(merge(packetPushedIn, packetPulledIn))"
attr title "incoming packet lengths, sum"
attr unit b
statistic FramePreemptionShowcase.host1.eth[0].macLayer.expressMacLayer.outboundEmitter incomingPacketLengths:histogram
field count 1986
field mean 9968
field stddev 0
field min 9968
field max 9968
field sum 19796448
field sqrsum 197330993664
attr interpolationmode none
attr recordingmode histogram
attr source "packetLength(merge(packetPushedIn, packetPulledIn))"
attr title "incoming packet lengths"
attr unit b
bin	-inf	0
bin	9967	0
bin	9968	1986
bin	9969	0
scalar FramePreemptionShowcase.host1.eth[0].macLayer.expressMacLayer.outboundEmitter flowIncomingPacketLengths:sum 0
attr interpolationmode none
attr recordingmode sum
attr source "packetLength(demuxFlow(merge(packetPushedIn, packetPulledIn)))"
attr title "flow specific incoming packet lengths, sum"
attr unit b
statistic FramePreemptionShowcase.host1.eth[0].macLayer.expressMacLayer.outboundEmitter flowIncomingPacketLengths:histogram
field count 0
field mean -nan
field stddev nan
field min nan
field max nan
field sum 0
field sqrsum 0
attr interpolationmode none
attr recordingmode histogram
attr source "packetLength(demuxFlow(merge(packetPushedIn, packetPulledIn)))"
attr title "flow specific incoming packet lengths"
attr unit b
bin	-inf	0
bin	0	0
bin	1	0
scalar FramePreemptionShowcase.host1.eth[0].macLayer.expressMacLayer.fcsChecker outgoingPackets:count 0
attr recordingmode count
attr source "merge(packetPushedOut, packetPulledOut)"
attr title "outgoing packets, count"
attr unit pk
scalar FramePreemptionShowcase.host1.eth[0].macLayer.expressMacLayer.fcsChecker outgoingPacketLengths:sum 0
attr interpolationmode none
attr recordingmode sum
attr source "packetLength(merge(packetPushedOut, packetPulledOut))"
attr title "outgoing packet lengths, sum"
attr unit b
statistic FramePreemptionShowcase.host1.eth[0].macLayer.expressMacLayer.fcsChecker outgoingPacketLengths:histogram
field count 0
field mean -nan
field stddev nan
field min nan
field max nan
field sum 0
field sqrsum 0
attr interpolationmode none
attr recordingmode histogram
attr source "packetLength(merge(packetPushedOut, packetPulledOut))"
attr title "outgoing packet lengths"
attr unit b
bin	-inf	0
bin	0	0
bin	1	0
scalar FramePreemptionShowcase.host1.eth[0].macLayer.expressMacLayer.fcsChecker flowOutgoingPacketLengths:sum 0
attr interpolationmode none
attr recordingmode sum
attr source "packetLength(demuxFlow(merge(packetPushedOut, packetPulledOut)))"
attr title "flow specific outgoing packet lengths, sum"
attr unit b
statistic FramePreemptionShowcase.host1.eth[0].macLayer.expressMacLayer.fcsChecker flowOutgoingPacketLengths:histogram
field count 0
field mean -nan
field stddev nan
field min nan
field max nan
field sum 0
field sqrsum 0
attr interpolationmode none
attr recordingmode histogram
attr source "packetLength(demuxFlow(merge(packetPushedOut, packetPulledOut)))"
attr title "flow specific outgoing packet lengths"
attr unit b
bin	-inf	0
bin	0	0
bin	1	0
scalar FramePreemptionShowcase.host1.eth[0].macLayer.expressMacLayer.fcsChecker incomingPackets:count 0
attr recordingmode count
attr source "merge(packetPushedIn, packetPulledIn)"
attr title "incoming packets, count"
attr unit pk
scalar FramePreemptionShowcase.host1.eth[0].macLayer.expressMacLayer.fcsChecker incomingPacketLengths:sum 0
attr interpolationmode none
attr recordingmode sum
attr source "packetLength(merge(packetPushedIn, packetPulledIn))"
attr title "incoming packet lengths, sum"
attr unit b
statistic FramePreemptionShowcase.host1.eth[0].macLayer.expressMacLayer.fcsChecker incomingPacketLengths:histogram
field count 0
field mean -nan
field stddev nan
field min nan
field max nan
field sum 0
field sqrsum 0
attr interpolationmode none
attr recordingmode histogram
attr source "packetLength(merge(packetPushedIn, packetPulledIn))"
attr title "incoming packet lengths"
attr unit b
bin	-inf	0
bin	0	0
bin	1	0
scalar FramePreemptionShowcase.host1.eth[0].macLayer.expressMacLayer.fcsChecker flowIncomingPacketLengths:sum 0
attr interpolationmode none
attr recordingmode sum
attr source "packetLength(demuxFlow(merge(packetPushedIn, packetPulledIn)))"
attr title "flow specific incoming packet lengths, sum"
attr unit b
statistic FramePreemptionShowcase.host1.eth[0].macLayer.expressMacLayer.fcsChecker flowIncomingPacketLengths:histogram
field count 0
field mean -nan
field stddev nan
field min nan
field max nan
field sum 0
field sqrsum 0
attr interpolationmode none
attr recordingmode histogram
attr source "packetLength(demuxFlow(merge(packetPushedIn, packetPulledIn)))"
attr title "flow specific incoming packet lengths"
attr unit b
bin	-inf	0
bin	0	0
bin	1	0
scalar FramePreemptionShowcase.host1.eth[0].macLayer.expressMacLayer.fcsChecker droppedPackets:count 0
attr recordingmode count
attr source packetDropped
attr title "dropped packets, count"
attr unit pk
scalar FramePreemptionShowcase.host1.eth[0].macLayer.expressMacLayer.fcsChecker droppedPacketLengths:sum 0
attr interpolationmode none
attr recordingmode sum
attr source packetLength(packetDropped)
attr title "dropped packet lengths, sum"
attr unit b
statistic FramePreemptionShowcase.host1.eth[0].macLayer.expressMacLayer.fcsChecker droppedPacketLengths:histogram
field count 0
field mean -nan
field stddev nan
field min nan
field max nan
field sum 0
field sqrsum 0
attr interpolationmode none
attr recordingmode histogram
attr source packetLength(packetDropped)
attr title "dropped packet lengths"
attr unit b
bin	-inf	0
bin	0	0
bin	1	0
scalar FramePreemptionShowcase.host1.eth[0].macLayer.expressMacLayer.fcsChecker flowDroppedPacketLengths:sum 0
attr interpolationmode none
attr recordingmode sum
attr source packetLength(demuxFlow(packetDropped))
attr title "flow specific dropped packet lengths, sum"
attr unit b
statistic FramePreemptionShowcase.host1.eth[0].macLayer.expressMacLayer.fcsChecker flowDroppedPacketLengths:histogram
field count 0
field mean -nan
field stddev nan
field min nan
field max nan
field sum 0
field sqrsum 0
attr interpolationmode none
attr recordingmode histogram
attr source packetLength(demuxFlow(packetDropped))
attr title "flow specific dropped packet lengths"
attr unit b
bin	-inf	0
bin	0	0
bin	1	0
scalar FramePreemptionShowcase.host1.eth[0].macLayer.expressMacLayer.inboundEmitter outgoingPackets:count 0
attr recordingmode count
attr source "merge(packetPushedOut, packetPulledOut)"
attr title "outgoing packets, count"
attr unit pk
scalar FramePreemptionShowcase.host1.eth[0].macLayer.expressMacLayer.inboundEmitter outgoingPacketLengths:sum 0
attr interpolationmode none
attr recordingmode sum
attr source "packetLength(merge(packetPushedOut, packetPulledOut))"
attr title "outgoing packet lengths, sum"
attr unit b
statistic FramePreemptionShowcase.host1.eth[0].macLayer.expressMacLayer.inboundEmitter outgoingPacketLengths:histogram
field count 0
field mean -nan
field stddev nan
field min nan
field max nan
field sum 0
field sqrsum 0
attr interpolationmode none
attr recordingmode histogram
attr source "packetLength(merge(packetPushedOut, packetPulledOut))"
attr title "outgoing packet lengths"
attr unit b
bin	-inf	0
bin	0	0
bin	1	0
scalar FramePreemptionShowcase.host1.eth[0].macLayer.expressMacLayer.inboundEmitter flowOutgoingPacketLengths:sum 0
attr interpolationmode none
attr recordingmode sum
attr source "packetLength(demuxFlow(merge(packetPushedOut, packetPulledOut)))"
attr title "flow specific outgoing packet lengths, sum"
attr unit b
statistic FramePreemptionShowcase.host1.eth[0].macLayer.expressMacLayer.inboundEmitter flowOutgoingPacketLengths:histogram
field count 0
field mean -nan
field stddev nan
field min nan
field max nan
field sum 0
field sqrsum 0
attr interpolationmode none
attr recordingmode histogram
attr source "packetLength(demuxFlow(merge(packetPushedOut, packetPulledOut)))"
attr title "flow specific outgoing packet lengths"
attr unit b
bin	-inf	0
bin	0	0
bin	1	0
scalar FramePreemptionShowcase.host1.eth[0].macLayer.expressMacLayer.inboundEmitter incomingPackets:count 0
attr recordingmode count
attr source "merge(packetPushedIn, packetPulledIn)"
attr title "incoming packets, count"
attr unit pk
scalar FramePreemptionShowcase.host1.eth[0].macLayer.expressMacLayer.inboundEmitter incomingPacketLengths:sum 0
attr interpolationmode none
attr recordingmode sum
attr source "packetLength(merge(packetPushedIn, packetPulledIn))"
attr title "incoming packet lengths, sum"
attr unit b
statistic FramePreemptionShowcase.host1.eth[0].macLayer.expressMacLayer.inboundEmitter incomingPacketLengths:histogram
field count 0
field mean -nan
field stddev nan
field min nan
field max nan
field sum 0
field sqrsum 0
attr interpolationmode none
attr recordingmode histogram
attr source "packetLength(merge(packetPushedIn, packetPulledIn))"
attr title "incoming packet lengths"
attr unit b
bin	-inf	0
bin	0	0
bin	1	0
scalar FramePreemptionShowcase.host1.eth[0].macLayer.expressMacLayer.inboundEmitter flowIncomingPacketLengths:sum 0
attr interpolationmode none
attr recordingmode sum
attr source "packetLength(demuxFlow(merge(packetPushedIn, packetPulledIn)))"
attr title "flow specific incoming packet lengths, sum"
attr unit b
statistic FramePreemptionShowcase.host1.eth[0].macLayer.expressMacLayer.inboundEmitter flowIncomingPacketLengths:histogram
field count 0
field mean -nan
field stddev nan
field min nan
field max nan
field sum 0
field sqrsum 0
attr interpolationmode none
attr recordingmode histogram
attr source "packetLength(demuxFlow(merge(packetPushedIn, packetPulledIn)))"
attr title "flow specific incoming packet lengths"
attr unit b
bin	-inf	0
bin	0	0
bin	1	0
scalar FramePreemptionShowcase.host1.eth[0].macLayer.preemptableMacLayer.queue queueLength:last 2
attr autoWarmupFilter false
attr interpolationmode sample-hold
attr recordingmode last
attr source "warmup(atomic(constant0(packetPushEnded) + count(packetPushStarted) - count(packetPulled) - count(packetRemoved) - count(packetDropped)))"
attr title "queue length, last"
attr unit pk
scalar FramePreemptionShowcase.host1.eth[0].macLayer.preemptableMacLayer.queue queueLength:max 4
attr autoWarmupFilter false
attr interpolationmode sample-hold
attr recordingmode max
attr source "warmup(atomic(constant0(packetPushEnded) + count(packetPushStarted) - count(packetPulled) - count(packetRemoved) - count(packetDropped)))"
attr title "queue length, max"
attr unit pk
scalar FramePreemptionShowcase.host1.eth[0].macLayer.preemptableMacLayer.queue queueLength:timeavg 2.683389205591
attr autoWarmupFilter false
attr interpolationmode sample-hold
attr recordingmode timeavg
attr source "warmup(atomic(constant0(packetPushEnded) + count(packetPushStarted) - count(packetPulled) - count(packetRemoved) - count(packetDropped)))"
attr title "queue length, timeavg"
attr unit pk
scalar FramePreemptionShowcase.host1.eth[0].macLayer.preemptableMacLayer.queue queueBitLength:last 19936
attr autoWarmupFilter false
attr interpolationmode sample-hold
attr recordingmode last
attr source "warmup(atomic(constant0(packetPushEnded) + sum(packetLength(packetPushStarted)) - sum(packetLength(packetPulled)) - sum(packetLength(packetRemoved)) - sum(packetLength(packetDropped))))"
attr title "queue bit length, last"
attr unit b
scalar FramePreemptionShowcase.host1.eth[0].macLayer.preemptableMacLayer.queue queueBitLength:max 39872
attr autoWarmupFilter false
attr interpolationmode sample-hold
attr recordingmode max
attr source "warmup(atomic(constant0(packetPushEnded) + sum(packetLength(packetPushStarted)) - sum(packetLength(packetPulled)) - sum(packetLength(packetRemoved)) - sum(packetLength(packetDropped))))"
attr title "queue bit length, max"
attr unit b
scalar FramePreemptionShowcase.host1.eth[0].macLayer.preemptableMacLayer.queue queueBitLength:timeavg 26748.023601332
attr autoWarmupFilter false
attr interpolationmode sample-hold
attr recordingmode timeavg
attr source "warmup(atomic(constant0(packetPushEnded) + sum(packetLength(packetPushStarted)) - sum(packetLength(packetPulled)) - sum(packetLength(packetRemoved)) - sum(packetLength(packetDropped))))"
attr title "queue bit length, timeavg"
attr unit b
statistic FramePreemptionShowcase.host1.eth[0].macLayer.preemptableMacLayer.queue queueingTime:histogram
field count 8833
field mean 0.00030375163841141
field stddev 0.00010984533244723
field min 0
field max 0.000696019991
field sum 2.683038222088
field sqrsum 0.0009215441419175
attr interpolationmode none
attr recordingmode histogram
attr source queueingTime(packetPulled)
attr title "queueing times"
attr unit s
bin	-inf	0
bin	0	115
bin	1e-05	25
bin	2e-05	28
bin	3e-05	29
bin	4e-05	31
bin	5e-05	52
bin	6e-05	43
bin	7e-05	44
bin	8e-05	56
bin	9e-05	66
bin	0.0001	62
bin	0.00011	72
bin	0.00012	77
bin	0.00013	71
bin	0.00014	81
bin	0.00015	97
bin	0.00016	114
bin	0.00017	142
bin	0.00018	131
bin	0.00019	147
bin	0.0002	159
bin	0.00021	163
bin	0.00022	221
bin	0.00023	216
bin	0.00024	205
bin	0.00025	257
bin	0.00026	245
bin	0.00027	272
bin	0.00028	314
bin	0.00029	292
bin	0.0003	292
bin	0.00031	376
bin	0.00032	342
bin	0.00033	384
bin	0.00034	409
bin	0.00035	370
bin	0.00036	369
bin	0.00037	313
bin	0.00038	317
bin	0.00039	319
bin	0.0004	213
bin	0.00041	159
bin	0.00042	157
bin	0.00043	161
bin	0.00044	129
bin	0.00045	136
bin	0.00046	128
bin	0.00047	122
bin	0.00048	94
bin	0.00049	95
bin	0.0005	53
bin	0.00051	9
bin	0.00052	8
bin	0.00053	12
bin	0.00054	6
bin	0.00055	4
bin	0.00056	8
bin	0.00057	7
bin	0.00058	4
bin	0.00059	5
bin	0.0006	3
bin	0.00061	0
bin	0.00062	0
bin	0.00063	0
bin	0.00064	0
bin	0.00065	0
bin	0.00066	0
bin	0.00067	1
bin	0.00068	0
bin	0.00069	1
bin	0.0007	0
scalar FramePreemptionShowcase.host1.eth[0].macLayer.preemptableMacLayer.queue outgoingPackets:count 8833
attr recordingmode count
attr source packetPulled
attr title "outgoing packets, count"
attr unit pk
scalar FramePreemptionShowcase.host1.eth[0].macLayer.preemptableMacLayer.queue outgoingPacketLengths:sum 88047344
attr interpolationmode none
attr recordingmode sum
attr source packetLength(packetPulled)
attr title "outgoing packet lengths, sum"
attr unit b
statistic FramePreemptionShowcase.host1.eth[0].macLayer.preemptableMacLayer.queue outgoingPacketLengths:histogram
field count 8833
field mean 9968
field stddev 0
field min 9968
field max 9968
field sum 88047344
field sqrsum 877655924992
attr interpolationmode none
attr recordingmode histogram
attr source packetLength(packetPulled)
attr title "outgoing packet lengths"
attr unit b
bin	-inf	0
bin	9967	0
bin	9968	8833
bin	9969	0
statistic FramePreemptionShowcase.host1.eth[0].macLayer.preemptableMacLayer.queue flowQueueingTime:histogram
field count 0
field mean -nan
field stddev nan
field min nan
field max nan
field sum 0
field sqrsum 0
attr interpolationmode none
attr recordingmode histogram
attr source queueingTime(demuxFlow(packetPulled))
attr title "flow queueing times"
attr unit s
bin	-inf	0
bin	0	0
bin	1	0
scalar FramePreemptionShowcase.host1.eth[0].macLayer.preemptableMacLayer.queue incomingPackets:count 9736
attr recordingmode count
attr source packetPushStarted
attr title "incoming packets, count"
attr unit pk
scalar FramePreemptionShowcase.host1.eth[0].macLayer.preemptableMacLayer.queue incomingPacketLengths:sum 97048448
attr interpolationmode none
attr recordingmode sum
attr source packetLength(packetPushStarted)
attr title "incoming packet lengths, sum"
attr unit b
statistic FramePreemptionShowcase.host1.eth[0].macLayer.preemptableMacLayer.queue incomingPacketLengths:histogram
field count 9736
field mean 9968
field stddev 0
field min 9968
field max 9968
field sum 97048448
field sqrsum 967378929664
attr interpolationmode none
attr recordingmode histogram
attr source packetLength(packetPushStarted)
attr title "incoming packet lengths"
attr unit b
bin	-inf	0
bin	9967	0
bin	9968	9736
bin	9969	0
scalar FramePreemptionShowcase.host1.eth[0].macLayer.preemptableMacLayer.queue droppedPacketsQueueOverflow:count 901
attr interpolationmode none
attr recordingmode count
attr source packetDropReasonIsQueueOverflow(packetDropped)
attr title "dropped packets: queue overflow, count"
attr unit pk
scalar FramePreemptionShowcase.host1.eth[0].macLayer.preemptableMacLayer.queue droppedPacketLengthsQueueOverflow:sum 8981168
attr interpolationmode none
attr recordingmode sum
attr source packetLength(packetDropReasonIsQueueOverflow(packetDropped))
attr title "dropped packet lengths: queue overflow, sum"
attr unit b
scalar FramePreemptionShowcase.host1.eth[0].macLayer.preemptableMacLayer.fcsRemover outgoingPackets:count 8833
attr recordingmode count
attr source "merge(packetPushedOut, packetPulledOut)"
attr title "outgoing packets, count"
attr unit pk
scalar FramePreemptionShowcase.host1.eth[0].macLayer.preemptableMacLayer.fcsRemover outgoingPacketLengths:sum 87764688
attr interpolationmode none
attr recordingmode sum
attr source "packetLength(merge(packetPushedOut, packetPulledOut))"
attr title "outgoing packet lengths, sum"
attr unit b
statistic FramePreemptionShowcase.host1.eth[0].macLayer.preemptableMacLayer.fcsRemover outgoingPacketLengths:histogram
field count 8833
field mean 9936
field stddev 0
field min 9936
field max 9936
field sum 87764688
field sqrsum 872029939968
attr interpolationmode none
attr recordingmode histogram
attr source "packetLength(merge(packetPushedOut, packetPulledOut))"
attr title "outgoing packet lengths"
attr unit b
bin	-inf	0
bin	9935	0
bin	9936	8833
bin	9937	0
scalar FramePreemptionShowcase.host1.eth[0].macLayer.preemptableMacLayer.fcsRemover flowOutgoingPacketLengths:sum 0
attr interpolationmode none
attr recordingmode sum
attr source "packetLength(demuxFlow(merge(packetPushedOut, packetPulledOut)))"
attr title "flow specific outgoing packet lengths, sum"
attr unit b
statistic FramePreemptionShowcase.host1.eth[0].macLayer.preemptableMacLayer.fcsRemover flowOutgoingPacketLengths:histogram
field count 0
field mean -nan
field stddev nan
field min nan
field max nan
field sum 0
field sqrsum 0
attr interpolationmode none
attr recordingmode histogram
attr source "packetLength(demuxFlow(merge(packetPushedOut, packetPulledOut)))"
attr title "flow specific outgoing packet lengths"
attr unit b
bin	-inf	0
bin	0	0
bin	1	0
scalar FramePreemptionShowcase.host1.eth[0].macLayer.preemptableMacLayer.fcsRemover incomingPackets:count 8833
attr recordingmode count
attr source "merge(packetPushedIn, packetPulledIn)"
attr title "incoming packets, count"
attr unit pk
scalar FramePreemptionShowcase.host1.eth[0].macLayer.preemptableMacLayer.fcsRemover incomingPacketLengths:sum 88047344
attr interpolationmode none
attr recordingmode sum
attr source "packetLength(merge(packetPushedIn, packetPulledIn))"
attr title "incoming packet lengths, sum"
attr unit b
statistic FramePreemptionShowcase.host1.eth[0].macLayer.preemptableMacLayer.fcsRemover incomingPacketLengths:histogram
field count 8833
field mean 9968
field stddev 0
field min 9968
field max 9968
field sum 88047344
field sqrsum 877655924992
attr interpolationmode none
attr recordingmode histogram
attr source "packetLength(merge(packetPushedIn, packetPulledIn))"
attr title "incoming packet lengths"
attr unit b
bin	-inf	0
bin	9967	0
bin	9968	8833
bin	9969	0
scalar FramePreemptionShowcase.host1.eth[0].macLayer.preemptableMacLayer.fcsRemover flowIncomingPacketLengths:sum 0
attr interpolationmode none
attr recordingmode sum
attr source "packetLength(demuxFlow(merge(packetPushedIn, packetPulledIn)))"
attr title "flow specific incoming packet lengths, sum"
attr unit b
statistic FramePreemptionShowcase.host1.eth[0].macLayer.preemptableMacLayer.fcsRemover flowIncomingPacketLengths:histogram
field count 0
field mean -nan
field stddev nan
field min nan
field max nan
field sum 0
field sqrsum 0
attr interpolationmode none
attr recordingmode histogram
attr source "packetLength(demuxFlow(merge(packetPushedIn, packetPulledIn)))"
attr title "flow specific incoming packet lengths"
attr unit b
bin	-inf	0
bin	0	0
bin	1	0
scalar FramePreemptionShowcase.host1.eth[0].macLayer.preemptableMacLayer.fcsRemover droppedPackets:count 0
attr recordingmode count
attr source packetDropped
attr title "dropped packets, count"
attr unit pk
scalar FramePreemptionShowcase.host1.eth[0].macLayer.preemptableMacLayer.fcsRemover droppedPacketLengths:sum 0
attr interpolationmode none
attr recordingmode sum
attr source packetLength(packetDropped)
attr title "dropped packet lengths, sum"
attr unit b
statistic FramePreemptionShowcase.host1.eth[0].macLayer.preemptableMacLayer.fcsRemover droppedPacketLengths:histogram
field count 0
field mean -nan
field stddev nan
field min nan
field max nan
field sum 0
field sqrsum 0
attr interpolationmode none
attr recordingmode histogram
attr source packetLength(packetDropped)
attr title "dropped packet lengths"
attr unit b
bin	-inf	0
bin	0	0
bin	1	0
scalar FramePreemptionShowcase.host1.eth[0].macLayer.preemptableMacLayer.fcsRemover flowDroppedPacketLengths:sum 0
attr interpolationmode none
attr recordingmode sum
attr source packetLength(demuxFlow(packetDropped))
attr title "flow specific dropped packet lengths, sum"
attr unit b
statistic FramePreemptionShowcase.host1.eth[0].macLayer.preemptableMacLayer.fcsRemover flowDroppedPacketLengths:histogram
field count 0
field mean -nan
field stddev nan
field min nan
field max nan
field sum 0
field sqrsum 0
attr interpolationmode none
attr recordingmode histogram
attr source packetLength(demuxFlow(packetDropped))
attr title "flow specific dropped packet lengths"
attr unit b
bin	-inf	0
bin	0	0
bin	1	0
scalar FramePreemptionShowcase.host1.eth[0].macLayer.preemptableMacLayer.fragmentFcsInserter outgoingPackets:count 19499
attr recordingmode count
attr source "merge(packetPushedOut, packetPulledOut)"
attr title "outgoing packets, count"
attr unit pk
scalar FramePreemptionShowcase.host1.eth[0].macLayer.preemptableMacLayer.fragmentFcsInserter outgoingPacketLengths:sum 180814704
attr interpolationmode none
attr recordingmode sum
attr source "packetLength(merge(packetPushedOut, packetPulledOut))"
attr title "outgoing packet lengths, sum"
attr unit b
statistic FramePreemptionShowcase.host1.eth[0].macLayer.preemptableMacLayer.fragmentFcsInserter outgoingPacketLengths:histogram
field count 19499
field mean 9273.024462793
field stddev 2008.3945304583
field min 512
field max 9968
field sum 180814704
field sqrsum 1755347253632
attr interpolationmode none
attr recordingmode histogram
attr source "packetLength(merge(packetPushedOut, packetPulledOut))"
attr title "outgoing packet lengths"
attr unit b
bin	-inf	0
bin	0	0
bin	200	0
bin	400	75
bin	600	53
bin	800	60
bin	1000	70
bin	1200	78
bin	1400	67
bin	1600	62
bin	1800	59
bin	2000	55
bin	2200	62
bin	2400	65
bin	2600	58
bin	2800	66
bin	3000	53
bin	3200	43
bin	3400	58
bin	3600	60
bin	3800	36
bin	4000	57
bin	4200	52
bin	4400	65
bin	4600	49
bin	4800	60
bin	5000	55
bin	5200	57
bin	5400	69
bin	5600	58
bin	5800	54
bin	6000	41
bin	6200	64
bin	6400	46
bin	6600	47
bin	6800	49
bin	7000	63
bin	7200	50
bin	7400	63
bin	7600	51
bin	7800	62
bin	8000	69
bin	8200	56
bin	8400	66
bin	8600	69
bin	8800	68
bin	9000	51
bin	9200	50
bin	9400	120
bin	9600	0
bin	9800	16758
bin	10000	0
bin	10200	0
bin	10400	0
bin	10600	0
bin	10800	0
bin	11000	0
bin	11200	0
bin	11400	0
bin	11600	0
bin	11800	0
bin	12000	0
bin	12200	0
scalar FramePreemptionShowcase.host1.eth[0].macLayer.preemptableMacLayer.fragmentFcsInserter flowOutgoingPacketLengths:sum 0
attr interpolationmode none
attr recordingmode sum
attr source "packetLength(demuxFlow(merge(packetPushedOut, packetPulledOut)))"
attr title "flow specific outgoing packet lengths, sum"
attr unit b
statistic FramePreemptionShowcase.host1.eth[0].macLayer.preemptableMacLayer.fragmentFcsInserter flowOutgoingPacketLengths:histogram
field count 0
field mean -nan
field stddev nan
field min nan
field max nan
field sum 0
field sqrsum 0
attr interpolationmode none
attr recordingmode histogram
attr source "packetLength(demuxFlow(merge(packetPushedOut, packetPulledOut)))"
attr title "flow specific outgoing packet lengths"
attr unit b
bin	-inf	0
bin	0	0
bin	1	0
scalar FramePreemptionShowcase.host1.eth[0].macLayer.preemptableMacLayer.fragmentFcsInserter incomingPackets:count 19499
attr recordingmode count
attr source "merge(packetPushedIn, packetPulledIn)"
attr title "incoming packets, count"
attr unit pk
scalar FramePreemptionShowcase.host1.eth[0].macLayer.preemptableMacLayer.fragmentFcsInserter incomingPacketLengths:sum 180190736
attr interpolationmode none
attr recordingmode sum
attr source "packetLength(merge(packetPushedIn, packetPulledIn))"
attr title "incoming packet lengths, sum"
attr unit b
statistic FramePreemptionShowcase.host1.eth[0].macLayer.preemptableMacLayer.fragmentFcsInserter incomingPacketLengths:histogram
field count 19499
field mean 9241.024462793
field stddev 2008.3945304583
field min 480
field max 9936
field sum 180190736
field sqrsum 1743795079552
attr interpolationmode none
attr recordingmode histogram
attr source "packetLength(merge(packetPushedIn, packetPulledIn))"
attr title "incoming packet lengths"
attr unit b
bin	-inf	0
bin	0	0
bin	200	0
bin	400	84
bin	600	51
bin	800	68
bin	1000	76
bin	1200	69
bin	1400	65
bin	1600	59
bin	1800	62
bin	2000	55
bin	2200	65
bin	2400	62
bin	2600	65
bin	2800	51
bin	3000	54
bin	3200	53
bin	3400	51
bin	3600	58
bin	3800	44
bin	4000	51
bin	4200	53
bin	4400	65
bin	4600	58
bin	4800	48
bin	5000	57
bin	5200	62
bin	5400	64
bin	5600	61
bin	5800	53
bin	6000	44
bin	6200	62
bin	6400	46
bin	6600	43
bin	6800	53
bin	7000	60
bin	7200	57
bin	7400	55
bin	7600	52
bin	7800	65
bin	8000	67
bin	8200	59
bin	8400	65
bin	8600	68
bin	8800	69
bin	9000	51
bin	9200	56
bin	9400	105
bin	9600	0
bin	9800	16758
bin	10000	0
bin	10200	0
bin	10400	0
bin	10600	0
bin	10800	0
bin	11000	0
bin	11200	0
bin	11400	0
bin	11600	0
bin	11800	0
bin	12000	0
bin	12200	0
scalar FramePreemptionShowcase.host1.eth[0].macLayer.preemptableMacLayer.fragmentFcsInserter flowIncomingPacketLengths:sum 0
attr interpolationmode none
attr recordingmode sum
attr source "packetLength(demuxFlow(merge(packetPushedIn, packetPulledIn)))"
attr title "flow specific incoming packet lengths, sum"
attr unit b
statistic FramePreemptionShowcase.host1.eth[0].macLayer.preemptableMacLayer.fragmentFcsInserter flowIncomingPacketLengths:histogram
field count 0
field mean -nan
field stddev nan
field min nan
field max nan
field sum 0
field sqrsum 0
attr interpolationmode none
attr recordingmode histogram
attr source "packetLength(demuxFlow(merge(packetPushedIn, packetPulledIn)))"
attr title "flow specific incoming packet lengths"
attr unit b
bin	-inf	0
bin	0	0
bin	1	0
scalar FramePreemptionShowcase.host1.eth[0].macLayer.preemptableMacLayer.outboundEmitter outgoingPackets:count 19499
attr recordingmode count
attr source "merge(packetPushedOut, packetPulledOut)"
attr title "outgoing packets, count"
attr unit pk
scalar FramePreemptionShowcase.host1.eth[0].macLayer.preemptableMacLayer.outboundEmitter outgoingPacketLengths:sum 180814704
attr interpolationmode none
attr recordingmode sum
attr source "packetLength(merge(packetPushedOut, packetPulledOut))"
attr title "outgoing packet lengths, sum"
attr unit b
statistic FramePreemptionShowcase.host1.eth[0].macLayer.preemptableMacLayer.outboundEmitter outgoingPacketLengths:histogram
field count 19499
field mean 9273.024462793
field stddev 2008.3945304583
field min 512
field max 9968
field sum 180814704
field sqrsum 1755347253632
attr interpolationmode none
attr recordingmode histogram
attr source "packetLength(merge(packetPushedOut, packetPulledOut))"
attr title "outgoing packet lengths"
attr unit b
bin	-inf	0
bin	0	0
bin	200	0
bin	400	75
bin	600	53
bin	800	60
bin	1000	70
bin	1200	78
bin	1400	67
bin	1600	62
bin	1800	59
bin	2000	55
bin	2200	62
bin	2400	65
bin	2600	58
bin	2800	66
bin	3000	53
bin	3200	43
bin	3400	58
bin	3600	60
bin	3800	36
bin	4000	57
bin	4200	52
bin	4400	65
bin	4600	49
bin	4800	60
bin	5000	55
bin	5200	57
bin	5400	69
bin	5600	58
bin	5800	54
bin	6000	41
bin	6200	64
bin	6400	46
bin	6600	47
bin	6800	49
bin	7000	63
bin	7200	50
bin	7400	63
bin	7600	51
bin	7800	62
bin	8000	69
bin	8200	56
bin	8400	66
bin	8600	69
bin	8800	68
bin	9000	51
bin	9200	50
bin	9400	120
bin	9600	0
bin	9800	16758
bin	10000	0
bin	10200	0
bin	10400	0
bin	10600	0
bin	10800	0
bin	11000	0
bin	11200	0
bin	11400	0
bin	11600	0
bin	11800	0
bin	12000	0
bin	12200	0
scalar FramePreemptionShowcase.host1.eth[0].macLayer.preemptableMacLayer.outboundEmitter flowOutgoingPacketLengths:sum 0
attr interpolationmode none
attr recordingmode sum
attr source "packetLength(demuxFlow(merge(packetPushedOut, packetPulledOut)))"
attr title "flow specific outgoing packet lengths, sum"
attr unit b
statistic FramePreemptionShowcase.host1.eth[0].macLayer.preemptableMacLayer.outboundEmitter flowOutgoingPacketLengths:histogram
field count 0
field mean -nan
field stddev nan
field min nan
field max nan
field sum 0
field sqrsum 0
attr interpolationmode none
attr recordingmode histogram
attr source "packetLength(demuxFlow(merge(packetPushedOut, packetPulledOut)))"
attr title "flow specific outgoing packet lengths"
attr unit b
bin	-inf	0
bin	0	0
bin	1	0
scalar FramePreemptionShowcase.host1.eth[0].macLayer.preemptableMacLayer.outboundEmitter incomingPackets:count 19499
attr recordingmode count
attr source "merge(packetPushedIn, packetPulledIn)"
attr title "incoming packets, count"
attr unit pk
scalar FramePreemptionShowcase.host1.eth[0].macLayer.preemptableMacLayer.outboundEmitter incomingPacketLengths:sum 180814704
attr interpolationmode none
attr recordingmode sum
attr source "packetLength(merge(packetPushedIn, packetPulledIn))"
attr title "incoming packet lengths, sum"
attr unit b
statistic FramePreemptionShowcase.host1.eth[0].macLayer.preemptableMacLayer.outboundEmitter incomingPacketLengths:histogram
field count 19499
field mean 9273.024462793
field stddev 2008.3945304583
field min 512
field max 9968
field sum 180814704
field sqrsum 1755347253632
attr interpolationmode none
attr recordingmode histogram
attr source "packetLength(merge(packetPushedIn, packetPulledIn))"
attr title "incoming packet lengths"
attr unit b
bin	-inf	0
bin	0	0
bin	200	0
bin	400	75
bin	600	53
bin	800	60
bin	1000	70
bin	1200	78
bin	1400	67
bin	1600	62
bin	1800	59
bin	2000	55
bin	2200	62
bin	2400	65
bin	2600	58
bin	2800	66
bin	3000	53
bin	3200	43
bin	3400	58
bin	3600	60
bin	3800	36
bin	4000	57
bin	4200	52
bin	4400	65
bin	4600	49
bin	4800	60
bin	5000	55
bin	5200	57
bin	5400	69
bin	5600	58
bin	5800	54
bin	6000	41
bin	6200	64
bin	6400	46
bin	6600	47
bin	6800	49
bin	7000	63
bin	7200	50
bin	7400	63
bin	7600	51
bin	7800	62
bin	8000	69
bin	8200	56
bin	8400	66
bin	8600	69
bin	8800	68
bin	9000	51
bin	9200	50
bin	9400	120
bin	9600	0
bin	9800	16758
bin	10000	0
bin	10200	0
bin	10400	0
bin	10600	0
bin	10800	0
bin	11000	0
bin	11200	0
bin	11400	0
bin	11600	0
bin	11800	0
bin	12000	0
bin	12200	0
scalar FramePreemptionShowcase.host1.eth[0].macLayer.preemptableMacLayer.outboundEmitter flowIncomingPacketLengths:sum 0
attr interpolationmode none
attr recordingmode sum
attr source "packetLength(demuxFlow(merge(packetPushedIn, packetPulledIn)))"
attr title "flow specific incoming packet lengths, sum"
attr unit b
statistic FramePreemptionShowcase.host1.eth[0].macLayer.preemptableMacLayer.outboundEmitter flowIncomingPacketLengths:histogram
field count 0
field mean -nan
field stddev nan
field min nan
field max nan
field sum 0
field sqrsum 0
attr interpolationmode none
attr recordingmode histogram
attr source "packetLength(demuxFlow(merge(packetPushedIn, packetPulledIn)))"
attr title "flow specific incoming packet lengths"
attr unit b
bin	-inf	0
bin	0	0
bin	1	0
scalar FramePreemptionShowcase.host1.eth[0].macLayer.preemptableMacLayer.fcsInserter outgoingPackets:count 0
attr recordingmode count
attr source "merge(packetPushedOut, packetPulledOut)"
attr title "outgoing packets, count"
attr unit pk
scalar FramePreemptionShowcase.host1.eth[0].macLayer.preemptableMacLayer.fcsInserter outgoingPacketLengths:sum 0
attr interpolationmode none
attr recordingmode sum
attr source "packetLength(merge(packetPushedOut, packetPulledOut))"
attr title "outgoing packet lengths, sum"
attr unit b
statistic FramePreemptionShowcase.host1.eth[0].macLayer.preemptableMacLayer.fcsInserter outgoingPacketLengths:histogram
field count 0
field mean -nan
field stddev nan
field min nan
field max nan
field sum 0
field sqrsum 0
attr interpolationmode none
attr recordingmode histogram
attr source "packetLength(merge(packetPushedOut, packetPulledOut))"
attr title "outgoing packet lengths"
attr unit b
bin	-inf	0
bin	0	0
bin	1	0
scalar FramePreemptionShowcase.host1.eth[0].macLayer.preemptableMacLayer.fcsInserter flowOutgoingPacketLengths:sum 0
attr interpolationmode none
attr recordingmode sum
attr source "packetLength(demuxFlow(merge(packetPushedOut, packetPulledOut)))"
attr title "flow specific outgoing packet lengths, sum"
attr unit b
statistic FramePreemptionShowcase.host1.eth[0].macLayer.preemptableMacLayer.fcsInserter flowOutgoingPacketLengths:histogram
field count 0
field mean -nan
field stddev nan
field min nan
field max nan
field sum 0
field sqrsum 0
attr interpolationmode none
attr recordingmode histogram
attr source "packetLength(demuxFlow(merge(packetPushedOut, packetPulledOut)))"
attr title "flow specific outgoing packet lengths"
attr unit b
bin	-inf	0
bin	0	0
bin	1	0
scalar FramePreemptionShowcase.host1.eth[0].macLayer.preemptableMacLayer.fcsInserter incomingPackets:count 0
attr recordingmode count
attr source "merge(packetPushedIn, packetPulledIn)"
attr title "incoming packets, count"
attr unit pk
scalar FramePreemptionShowcase.host1.eth[0].macLayer.preemptableMacLayer.fcsInserter incomingPacketLengths:sum 0
attr interpolationmode none
attr recordingmode sum
attr source "packetLength(merge(packetPushedIn, packetPulledIn))"
attr title "incoming packet lengths, sum"
attr unit b
statistic FramePreemptionShowcase.host1.eth[0].macLayer.preemptableMacLayer.fcsInserter incomingPacketLengths:histogram
field count 0
field mean -nan
field stddev nan
field min nan
field max nan
field sum 0
field sqrsum 0
attr interpolationmode none
attr recordingmode histogram
attr source "packetLength(merge(packetPushedIn, packetPulledIn))"
attr title "incoming packet lengths"
attr unit b
bin	-inf	0
bin	0	0
bin	1	0
scalar FramePreemptionShowcase.host1.eth[0].macLayer.preemptableMacLayer.fcsInserter flowIncomingPacketLengths:sum 0
attr interpolationmode none
attr recordingmode sum
attr source "packetLength(demuxFlow(merge(packetPushedIn, packetPulledIn)))"
attr title "flow specific incoming packet lengths, sum"
attr unit b
statistic FramePreemptionShowcase.host1.eth[0].macLayer.preemptableMacLayer.fcsInserter flowIncomingPacketLengths:histogram
field count 0
field mean -nan
field stddev nan
field min nan
field max nan
field sum 0
field sqrsum 0
attr interpolationmode none
attr recordingmode histogram
attr source "packetLength(demuxFlow(merge(packetPushedIn, packetPulledIn)))"
attr title "flow specific incoming packet lengths"
attr unit b
bin	-inf	0
bin	0	0
bin	1	0
scalar FramePreemptionShowcase.host1.eth[0].macLayer.preemptableMacLayer.fragmentFcsChecker outgoingPackets:count 0
attr recordingmode count
attr source "merge(packetPushedOut, packetPulledOut)"
attr title "outgoing packets, count"
attr unit pk
scalar FramePreemptionShowcase.host1.eth[0].macLayer.preemptableMacLayer.fragmentFcsChecker outgoingPacketLengths:sum 0
attr interpolationmode none
attr recordingmode sum
attr source "packetLength(merge(packetPushedOut, packetPulledOut))"
attr title "outgoing packet lengths, sum"
attr unit b
statistic FramePreemptionShowcase.host1.eth[0].macLayer.preemptableMacLayer.fragmentFcsChecker outgoingPacketLengths:histogram
field count 0
field mean -nan
field stddev nan
field min nan
field max nan
field sum 0
field sqrsum 0
attr interpolationmode none
attr recordingmode histogram
attr source "packetLength(merge(packetPushedOut, packetPulledOut))"
attr title "outgoing packet lengths"
attr unit b
bin	-inf	0
bin	0	0
bin	1	0
scalar FramePreemptionShowcase.host1.eth[0].macLayer.preemptableMacLayer.fragmentFcsChecker flowOutgoingPacketLengths:sum 0
attr interpolationmode none
attr recordingmode sum
attr source "packetLength(demuxFlow(merge(packetPushedOut, packetPulledOut)))"
attr title "flow specific outgoing packet lengths, sum"
attr unit b
statistic FramePreemptionShowcase.host1.eth[0].macLayer.preemptableMacLayer.fragmentFcsChecker flowOutgoingPacketLengths:histogram
field count 0
field mean -nan
field stddev nan
field min nan
field max nan
field sum 0
field sqrsum 0
attr interpolationmode none
attr recordingmode histogram
attr source "packetLength(demuxFlow(merge(packetPushedOut, packetPulledOut)))"
attr title "flow specific outgoing packet lengths"
attr unit b
bin	-inf	0
bin	0	0
bin	1	0
scalar FramePreemptionShowcase.host1.eth[0].macLayer.preemptableMacLayer.fragmentFcsChecker incomingPackets:count 0
attr recordingmode count
attr source "merge(packetPushedIn, packetPulledIn)"
attr title "incoming packets, count"
attr unit pk
scalar FramePreemptionShowcase.host1.eth[0].macLayer.preemptableMacLayer.fragmentFcsChecker incomingPacketLengths:sum 0
attr interpolationmode none
attr recordingmode sum
attr source "packetLength(merge(packetPushedIn, packetPulledIn))"
attr title "incoming packet lengths, sum"
attr unit b
statistic FramePreemptionShowcase.host1.eth[0].macLayer.preemptableMacLayer.fragmentFcsChecker incomingPacketLengths:histogram
field count 0
field mean -nan
field stddev nan
field min nan
field max nan
field sum 0
field sqrsum 0
attr interpolationmode none
attr recordingmode histogram
attr source "packetLength(merge(packetPushedIn, packetPulledIn))"
attr title "incoming packet lengths"
attr unit b
bin	-inf	0
bin	0	0
bin	1	0
scalar FramePreemptionShowcase.host1.eth[0].macLayer.preemptableMacLayer.fragmentFcsChecker flowIncomingPacketLengths:sum 0
attr interpolationmode none
attr recordingmode sum
attr source "packetLength(demuxFlow(merge(packetPushedIn, packetPulledIn)))"
attr title "flow specific incoming packet lengths, sum"
attr unit b
statistic FramePreemptionShowcase.host1.eth[0].macLayer.preemptableMacLayer.fragmentFcsChecker flowIncomingPacketLengths:histogram
field count 0
field mean -nan
field stddev nan
field min nan
field max nan
field sum 0
field sqrsum 0
attr interpolationmode none
attr recordingmode histogram
attr source "packetLength(demuxFlow(merge(packetPushedIn, packetPulledIn)))"
attr title "flow specific incoming packet lengths"
attr unit b
bin	-inf	0
bin	0	0
bin	1	0
scalar FramePreemptionShowcase.host1.eth[0].macLayer.preemptableMacLayer.fragmentFcsChecker droppedPackets:count 0
attr recordingmode count
attr source packetDropped
attr title "dropped packets, count"
attr unit pk
scalar FramePreemptionShowcase.host1.eth[0].macLayer.preemptableMacLayer.fragmentFcsChecker droppedPacketLengths:sum 0
attr interpolationmode none
attr recordingmode sum
attr source packetLength(packetDropped)
attr title "dropped packet lengths, sum"
attr unit b
statistic FramePreemptionShowcase.host1.eth[0].macLayer.preemptableMacLayer.fragmentFcsChecker droppedPacketLengths:histogram
field count 0
field mean -nan
field stddev nan
field min nan
field max nan
field sum 0
field sqrsum 0
attr interpolationmode none
attr recordingmode histogram
attr source packetLength(packetDropped)
attr title "dropped packet lengths"
attr unit b
bin	-inf	0
bin	0	0
bin	1	0
scalar FramePreemptionShowcase.host1.eth[0].macLayer.preemptableMacLayer.fragmentFcsChecker flowDroppedPacketLengths:sum 0
attr interpolationmode none
attr recordingmode sum
attr source packetLength(demuxFlow(packetDropped))
attr title "flow specific dropped packet lengths, sum"
attr unit b
statistic FramePreemptionShowcase.host1.eth[0].macLayer.preemptableMacLayer.fragmentFcsChecker flowDroppedPacketLengths:histogram
field count 0
field mean -nan
field stddev nan
field min nan
field max nan
field sum 0
field sqrsum 0
attr interpolationmode none
attr recordingmode histogram
attr source packetLength(demuxFlow(packetDropped))
attr title "flow specific dropped packet lengths"
attr unit b
bin	-inf	0
bin	0	0
bin	1	0
scalar FramePreemptionShowcase.host1.eth[0].macLayer.preemptableMacLayer.inboundEmitter outgoingPackets:count 0
attr recordingmode count
attr source "merge(packetPushedOut, packetPulledOut)"
attr title "outgoing packets, count"
attr unit pk
scalar FramePreemptionShowcase.host1.eth[0].macLayer.preemptableMacLayer.inboundEmitter outgoingPacketLengths:sum 0
attr interpolationmode none
attr recordingmode sum
attr source "packetLength(merge(packetPushedOut, packetPulledOut))"
attr title "outgoing packet lengths, sum"
attr unit b
statistic FramePreemptionShowcase.host1.eth[0].macLayer.preemptableMacLayer.inboundEmitter outgoingPacketLengths:histogram
field count 0
field mean -nan
field stddev nan
field min nan
field max nan
field sum 0
field sqrsum 0
attr interpolationmode none
attr recordingmode histogram
attr source "packetLength(merge(packetPushedOut, packetPulledOut))"
attr title "outgoing packet lengths"
attr unit b
bin	-inf	0
bin	0	0
bin	1	0
scalar FramePreemptionShowcase.host1.eth[0].macLayer.preemptableMacLayer.inboundEmitter flowOutgoingPacketLengths:sum 0
attr interpolationmode none
attr recordingmode sum
attr source "packetLength(demuxFlow(merge(packetPushedOut, packetPulledOut)))"
attr title "flow specific outgoing packet lengths, sum"
attr unit b
statistic FramePreemptionShowcase.host1.eth[0].macLayer.preemptableMacLayer.inboundEmitter flowOutgoingPacketLengths:histogram
field count 0
field mean -nan
field stddev nan
field min nan
field max nan
field sum 0
field sqrsum 0
attr interpolationmode none
attr recordingmode histogram
attr source "packetLength(demuxFlow(merge(packetPushedOut, packetPulledOut)))"
attr title "flow specific outgoing packet lengths"
attr unit b
bin	-inf	0
bin	0	0
bin	1	0
scalar FramePreemptionShowcase.host1.eth[0].macLayer.preemptableMacLayer.inboundEmitter incomingPackets:count 0
attr recordingmode count
attr source "merge(packetPushedIn, packetPulledIn)"
attr title "incoming packets, count"
attr unit pk
scalar FramePreemptionShowcase.host1.eth[0].macLayer.preemptableMacLayer.inboundEmitter incomingPacketLengths:sum 0
attr interpolationmode none
attr recordingmode sum
attr source "packetLength(merge(packetPushedIn, packetPulledIn))"
attr title "incoming packet lengths, sum"
attr unit b
statistic FramePreemptionShowcase.host1.eth[0].macLayer.preemptableMacLayer.inboundEmitter incomingPacketLengths:histogram
field count 0
field mean -nan
field stddev nan
field min nan
field max nan
field sum 0
field sqrsum 0
attr interpolationmode none
attr recordingmode histogram
attr source "packetLength(merge(packetPushedIn, packetPulledIn))"
attr title "incoming packet lengths"
attr unit b
bin	-inf	0
bin	0	0
bin	1	0
scalar FramePreemptionShowcase.host1.eth[0].macLayer.preemptableMacLayer.inboundEmitter flowIncomingPacketLengths:sum 0
attr interpolationmode none
attr recordingmode sum
attr source "packetLength(demuxFlow(merge(packetPushedIn, packetPulledIn)))"
attr title "flow specific incoming packet lengths, sum"
attr unit b
statistic FramePreemptionShowcase.host1.eth[0].macLayer.preemptableMacLayer.inboundEmitter flowIncomingPacketLengths:histogram
field count 0
field mean -nan
field stddev nan
field min nan
field max nan
field sum 0
field sqrsum 0
attr interpolationmode none
attr recordingmode histogram
attr source "packetLength(demuxFlow(merge(packetPushedIn, packetPulledIn)))"
attr title "flow specific incoming packet lengths"
attr unit b
bin	-inf	0
bin	0	0
bin	1	0
scalar FramePreemptionShowcase.host1.eth[0].macLayer.scheduler packets:count 10742
attr recordingmode count
attr source packetPulled
attr title "packets, count"
attr unit pk
scalar FramePreemptionShowcase.host1.eth[0].macLayer.scheduler packetLengths:sum 97964944
attr interpolationmode none
attr recordingmode sum
attr source packetLength(packetPulled)
attr title "packet lengths, sum"
attr unit b
statistic FramePreemptionShowcase.host1.eth[0].macLayer.scheduler packetLengths:histogram
field count 10742
field mean 9119.8048780488
field stddev 2195.8418319619
field min 512
field max 9968
field sum 97964944
field sqrsum 945211283200
attr interpolationmode none
attr recordingmode histogram
attr source packetLength(packetPulled)
attr title "packet lengths"
attr unit b
bin	-inf	0
bin	0	0
bin	200	0
bin	400	64
bin	600	36
bin	800	37
bin	1000	46
bin	1200	50
bin	1400	45
bin	1600	39
bin	1800	43
bin	2000	40
bin	2200	37
bin	2400	43
bin	2600	38
bin	2800	44
bin	3000	34
bin	3200	29
bin	3400	37
bin	3600	40
bin	3800	25
bin	4000	38
bin	4200	37
bin	4400	43
bin	4600	35
bin	4800	39
bin	5000	37
bin	5200	36
bin	5400	46
bin	5600	36
bin	5800	35
bin	6000	27
bin	6200	43
bin	6400	32
bin	6600	31
bin	6800	34
bin	7000	41
bin	7200	35
bin	7400	43
bin	7600	38
bin	7800	39
bin	8000	41
bin	8200	40
bin	8400	43
bin	8600	47
bin	8800	46
bin	9000	38
bin	9200	32
bin	9400	65
bin	9600	0
bin	9800	8918
bin	10000	0
bin	10200	0
bin	10400	0
bin	10600	0
bin	10800	0
bin	11000	0
bin	11200	0
bin	11400	0
bin	11600	0
bin	11800	0
bin	12000	0
bin	12200	0
bin	12400	0
scalar FramePreemptionShowcase.host1.eth[0].macLayer.preemptingServer incomingPackets:count 0
attr recordingmode count
attr source packetPulled
attr title "incoming packets, count"
attr unit pk
scalar FramePreemptionShowcase.host1.eth[0].macLayer.preemptingServer incomingPacketLengths:sum 0
attr interpolationmode none
attr recordingmode sum
attr source packetLength(packetPulled)
attr title "incoming packet lengths, sum"
attr unit b
statistic FramePreemptionShowcase.host1.eth[0].macLayer.preemptingServer incomingPacketLengths:histogram
field count 0
field mean -nan
field stddev nan
field min nan
field max nan
field sum 0
field sqrsum 0
attr interpolationmode none
attr recordingmode histogram
attr source packetLength(packetPulled)
attr title "incoming packet lengths"
attr unit b
bin	-inf	0
bin	0	0
bin	1	0
scalar FramePreemptionShowcase.host1.eth[0].macLayer.preemptingServer outgoingPackets:count 0
attr recordingmode count
attr source packetPushed
attr title "outgoing packets, count"
attr unit pk
scalar FramePreemptionShowcase.host1.eth[0].macLayer.preemptingServer outgoingPacketLengths:sum 0
attr interpolationmode none
attr recordingmode sum
attr source packetLength(packetPushed)
attr title "outgoing packet lengths, sum"
attr unit b
statistic FramePreemptionShowcase.host1.eth[0].macLayer.preemptingServer outgoingPacketLengths:histogram
field count 0
field mean -nan
field stddev nan
field min nan
field max nan
field sum 0
field sqrsum 0
attr interpolationmode none
attr recordingmode histogram
attr source packetLength(packetPushed)
attr title "outgoing packet lengths"
attr unit b
bin	-inf	0
bin	0	0
bin	1	0
scalar FramePreemptionShowcase.host1.eth[0].macLayer.inboundClassifier packets:count 0
attr recordingmode count
attr source packetPushed
attr title "packets, count"
attr unit pk
scalar FramePreemptionShowcase.host1.eth[0].macLayer.inboundClassifier packetLengths:sum 0
attr interpolationmode none
attr recordingmode sum
attr source packetLength(packetPushed)
attr title "packet lengths, sum"
attr unit b
statistic FramePreemptionShowcase.host1.eth[0].macLayer.inboundClassifier packetLengths:histogram
field count 0
field mean -nan
field stddev nan
field min nan
field max nan
field sum 0
field sqrsum 0
attr interpolationmode none
attr recordingmode histogram
attr source packetLength(packetPushed)
attr title "packet lengths"
attr unit b
bin	-inf	0
bin	0	0
[...]
attr title "packet drop: hop limit reached, sum(packetBytes)"
scalar FramePreemptionShowcase.host2.ipv4.ip packetDropForwardingDisabled:count 0
attr interpolationmode none
attr recordingmode count
attr source packetDropReasonIsForwardingDisabled(packetDropped)
attr title "packet drop: forwarding disabled, count"
scalar FramePreemptionShowcase.host2.ipv4.ip packetDropForwardingDisabled:sum(packetBytes) 0
attr interpolationmode none
attr recordingmode sum(packetBytes)
attr source packetDropReasonIsForwardingDisabled(packetDropped)
attr title "packet drop: forwarding disabled, sum(packetBytes)"
scalar FramePreemptionShowcase.host2.ipv4.ip packetDropNoInterfaceFound:count 0
attr interpolationmode none
attr recordingmode count
attr source packetDropReasonIsNoInterfaceFound(packetDropped)
attr title "packet drop: no interface found, count"
scalar FramePreemptionShowcase.host2.ipv4.ip packetDropNoInterfaceFound:sum(packetBytes) 0
attr interpolationmode none
attr recordingmode sum(packetBytes)
attr source packetDropReasonIsNoInterfaceFound(packetDropped)
attr title "packet drop: no interface found, sum(packetBytes)"
scalar FramePreemptionShowcase.host2.ipv4.ip packetDropNoRouteFound:count 0
attr interpolationmode none
attr recordingmode count
attr source packetDropReasonIsNoRouteFound(packetDropped)
attr title "packet drop: no route found, count"
scalar FramePreemptionShowcase.host2.ipv4.ip packetDropNoRouteFound:sum(packetBytes) 0
attr interpolationmode none
attr recordingmode sum(packetBytes)
attr source packetDropReasonIsNoRouteFound(packetDropped)
attr title "packet drop: no route found, sum(packetBytes)"
scalar FramePreemptionShowcase.host2.ipv4.ip packetDropUndefined:count 0
attr interpolationmode none
attr recordingmode count
attr source packetDropReasonIsUndefined(packetDropped)
attr title "packet drop: undefined, count"
scalar FramePreemptionShowcase.host2.ipv4.ip packetDropUndefined:sum(packetBytes) 0
attr interpolationmode none
attr recordingmode sum(packetBytes)
attr source packetDropReasonIsUndefined(packetDropped)
attr title "packet drop: undefined, sum(packetBytes)"
scalar FramePreemptionShowcase.host2.udp packetReceived:count 9825
attr interpolationmode none
attr recordingmode count
attr source packetReceived
attr title "packets received, count"
scalar FramePreemptionShowcase.host2.udp packetReceived:sum(packetBytes) 11868600
attr interpolationmode none
attr recordingmode sum(packetBytes)
attr source packetReceived
attr title "packets received, sum(packetBytes)"
scalar FramePreemptionShowcase.host2.udp packetSent:count 0
attr interpolationmode none
attr recordingmode count
attr source packetSent
attr title "packets sent, count"
scalar FramePreemptionShowcase.host2.udp packetSent:sum(packetBytes) 0
attr interpolationmode none
attr recordingmode sum(packetBytes)
attr source packetSent
attr title "packets sent, sum(packetBytes)"
scalar FramePreemptionShowcase.host2.udp passedUpPk:count 9825
attr interpolationmode none
attr recordingmode count
attr source packetSentToUpper
attr title "packets passed up, count"
scalar FramePreemptionShowcase.host2.udp droppedPkWrongPort:count 0
attr interpolationmode none
attr recordingmode count
attr source packetDropReasonIsNoPortFound(packetDropped)
attr title "packets dropped (wrong port), count"
scalar FramePreemptionShowcase.host2.udp droppedPkBadChecksum:count 0
attr interpolationmode none
attr recordingmode count
attr source packetDropReasonIsIncorrectlyReceived(packetDropped)
attr title "packets dropped (checksum error), count"
scalar FramePreemptionShowcase.host2.app[0].sink packets:count 8832
attr recordingmode count
attr source packetPushed
attr title "packets, count"
attr unit pk
scalar FramePreemptionShowcase.host2.app[0].sink packetLengths:sum 84787200
attr interpolationmode none
attr recordingmode sum
attr source packetLength(packetPushed)
attr title "packet lengths, sum"
attr unit b
statistic FramePreemptionShowcase.host2.app[0].sink packetLengths:histogram
field count 8832
field mean 9600
field stddev 0
field min 9600
field max 9600
field sum 84787200
field sqrsum 813957120000
attr interpolationmode none
attr recordingmode histogram
attr source packetLength(packetPushed)
attr title "packet lengths"
attr unit b
bin	-inf	0
bin	9599	0
bin	9600	8832
bin	9601	0
statistic FramePreemptionShowcase.host2.app[0].sink meanBitLifeTimePerPacket:histogram
field count 8831
field mean 0.00041503029433586
field stddev 0.00011134379210298
field min 0.00010037
field max 0.000796389991
field sum 3.66513252928
field sqrsum 0.0016306104279591
attr interpolationmode none
attr recordingmode histogram
attr source weightedMeanPerGroup(groupRegionsPerPacket(lifeTimePerRegion(packetPushed)))
attr title "mean bit life time per packet"
attr unit s
bin	-inf	0
bin	0	0
bin	1e-05	0
bin	2e-05	0
bin	3e-05	0
bin	4e-05	0
bin	5e-05	0
bin	6e-05	0
bin	7e-05	0
bin	8e-05	0
bin	9e-05	0
bin	0.0001	96
bin	0.00011	20
bin	0.00012	27
bin	0.00013	24
bin	0.00014	27
bin	0.00015	45
bin	0.00016	36
bin	0.00017	35
bin	0.00018	45
bin	0.00019	53
bin	0.0002	67
bin	0.00021	64
bin	0.00022	74
bin	0.00023	59
bin	0.00024	79
bin	0.00025	87
bin	0.00026	102
bin	0.00027	128
bin	0.00028	127
bin	0.00029	136
bin	0.0003	148
bin	0.00031	151
bin	0.00032	207
bin	0.00033	200
bin	0.00034	193
bin	0.00035	239
bin	0.00036	226
bin	0.00037	260
bin	0.00038	297
bin	0.00039	264
bin	0.0004	282
bin	0.00041	361
bin	0.00042	332
bin	0.00043	356
bin	0.00044	395
bin	0.00045	369
bin	0.00046	353
bin	0.00047	314
bin	0.00048	324
bin	0.00049	331
bin	0.0005	231
bin	0.00051	204
bin	0.00052	180
bin	0.00053	193
bin	0.00054	164
bin	0.00055	171
bin	0.00056	168
bin	0.00057	152
bin	0.00058	121
bin	0.00059	125
bin	0.0006	74
bin	0.00061	12
bin	0.00062	12
bin	0.00063	17
bin	0.00064	10
bin	0.00065	14
bin	0.00066	14
bin	0.00067	10
bin	0.00068	5
bin	0.00069	6
bin	0.0007	8
bin	0.00071	1
bin	0.00072	0
bin	0.00073	0
bin	0.00074	2
bin	0.00075	0
bin	0.00076	0
bin	0.00077	3
bin	0.00078	0
bin	0.00079	1
bin	0.0008	0
bin	0.00081	0
statistic FramePreemptionShowcase.host2.app[0].sink packetJitter:histogram
field count 8831
field mean 6.0526488053448e-08
field stddev 6.0690947740978e-05
field min -0.000295708968
field max 0.000297674269
field sum 0.000534509416
field sqrsum 3.2524376097852e-05
attr interpolationmode none
attr recordingmode histogram
attr source jitter(weightedMeanPerGroup(groupRegionsPerPacket(lifeTimePerRegion(packetPushed))))
attr title "packet jitter"
attr unit s
bin	-inf	0
bin	-0.0003	1
bin	-0.00029	0
bin	-0.00028	0
bin	-0.00027	0
bin	-0.00026	2
bin	-0.00025	1
bin	-0.00024	1
bin	-0.00023	5
bin	-0.00022	3
bin	-0.00021	4
bin	-0.0002	7
bin	-0.00019	8
bin	-0.00018	8
bin	-0.00017	12
bin	-0.00016	16
bin	-0.00015	31
bin	-0.00014	32
bin	-0.00013	71
bin	-0.00012	73
bin	-0.00011	108
bin	-0.0001	132
bin	-9e-05	160
bin	-8e-05	256
bin	-7e-05	310
bin	-6e-05	399
bin	-5e-05	471
bin	-4e-05	520
bin	-3e-05	617
bin	-2e-05	598
bin	-1e-05	650
bin	0	709
bin	1e-05	640
bin	2e-05	563
bin	3e-05	469
bin	4e-05	409
bin	5e-05	310
bin	6e-05	232
bin	7e-05	214
bin	8e-05	169
bin	9e-05	139
bin	0.0001	100
bin	0.00011	65
bin	0.00012	52
bin	0.00013	55
bin	0.00014	59
bin	0.00015	42
bin	0.00016	37
bin	0.00017	20
bin	0.00018	22
bin	0.00019	15
bin	0.0002	4
bin	0.00021	3
bin	0.00022	0
bin	0.00023	1
bin	0.00024	0
bin	0.00025	2
bin	0.00026	1
bin	0.00027	1
bin	0.00028	1
bin	0.00029	1
bin	0.0003	0
statistic FramePreemptionShowcase.host2.app[0].sink packetDelayDifferenceToMean:histogram
field count 8831
field mean -7.6172618580226e-06
field stddev 0.00011102844154786
field min -0.00038144799842706
field max 0.00031637623612175
field sum -0.067268039468197
field sqrsum 0.00010936258824269
attr interpolationmode none
attr recordingmode histogram
attr source differenceToMean(weightedMeanPerGroup(groupRegionsPerPacket(lifeTimePerRegion(packetPushed))))
attr title "packet delay difference to mean"
attr unit s
bin	-inf	0
bin	-0.00041	0
bin	-0.0004	0
bin	-0.00039	1
bin	-0.00038	0
bin	-0.00037	3
bin	-0.00036	0
bin	-0.00035	0
bin	-0.00034	2
bin	-0.00033	0
bin	-0.00032	0
bin	-0.00031	5
bin	-0.0003	4
bin	-0.00029	10
bin	-0.00028	6
bin	-0.00027	8
bin	-0.00026	11
bin	-0.00025	13
bin	-0.00024	16
bin	-0.00023	16
bin	-0.00022	14
bin	-0.00021	35
bin	-0.0002	82
bin	-0.00019	116
bin	-0.00018	135
bin	-0.00017	148
bin	-0.00016	163
bin	-0.00015	177
bin	-0.00014	186
bin	-0.00013	166
bin	-0.00012	205
bin	-0.00011	208
bin	-0.0001	260
bin	-9e-05	312
bin	-8e-05	298
bin	-7e-05	341
bin	-6e-05	339
bin	-5e-05	393
bin	-4e-05	373
bin	-3e-05	375
bin	-2e-05	353
bin	-1e-05	335
bin	0	265
bin	1e-05	274
bin	2e-05	299
bin	3e-05	241
bin	4e-05	239
bin	5e-05	222
bin	6e-05	184
bin	7e-05	217
bin	8e-05	197
bin	9e-05	166
bin	0.0001	143
bin	0.00011	139
bin	0.00012	123
bin	0.00013	114
bin	0.00014	106
bin	0.00015	69
bin	0.00016	72
bin	0.00017	65
bin	0.00018	73
bin	0.00019	59
bin	0.0002	65
bin	0.00021	55
bin	0.00022	36
bin	0.00023	37
bin	0.00024	38
bin	0.00025	36
bin	0.00026	28
bin	0.00027	23
bin	0.00028	26
bin	0.00029	22
bin	0.0003	45
bin	0.00031	44
bin	0.00032	0
statistic FramePreemptionShowcase.host2.app[0].sink packetDelayVariation:histogram
field count 8831
field mean 0.00011426113594176
field stddev 4.6798972615781e-06
field min 0
field max 0.00013196333151564
field sum 1.0090400915017
field sqrsum 0.00011548745676665
attr recordingmode histogram
attr source stddev(weightedMeanPerGroup(groupRegionsPerPacket(lifeTimePerRegion(packetPushed))))
attr title "packet delay variation"
attr unit s
bin	-inf	0
bin	0	1
bin	2e-06	0
bin	4e-06	0
bin	6e-06	0
bin	8e-06	0
bin	1e-05	0
bin	1.2e-05	0
bin	1.4e-05	0
bin	1.6e-05	0
bin	1.8e-05	0
bin	2e-05	1
bin	2.2e-05	0
bin	2.4e-05	0
bin	2.6e-05	0
bin	2.8e-05	0
bin	3e-05	0
bin	3.2e-05	0
bin	3.4e-05	1
bin	3.6e-05	1
bin	3.8e-05	0
bin	4e-05	0
bin	4.2e-05	0
bin	4.4e-05	1
bin	4.6e-05	1
bin	4.8e-05	1
bin	5e-05	0
bin	5.2e-05	0
bin	5.4e-05	1
bin	5.6e-05	0
bin	5.8e-05	0
bin	6e-05	0
bin	6.2e-05	0
bin	6.4e-05	1
bin	6.6e-05	0
bin	6.8e-05	0
bin	7e-05	0
bin	7.2e-05	0
bin	7.4e-05	0
bin	7.6e-05	0
bin	7.8e-05	0
bin	8e-05	0
bin	8.2e-05	1
bin	8.4e-05	0
bin	8.6e-05	0
bin	8.8e-05	0
bin	9e-05	0
bin	9.2e-05	0
bin	9.4e-05	0
bin	9.6e-05	2
bin	9.8e-05	1
bin	0.0001	0
bin	0.000102	4
bin	0.000104	1
bin	0.000106	1
bin	0.000108	27
bin	0.00011	2950
bin	0.000112	2178
bin	0.000114	1611
bin	0.000116	516
bin	0.000118	415
bin	0.00012	428
bin	0.000122	367
bin	0.000124	278
bin	0.000126	36
bin	0.000128	2
bin	0.00013	4
bin	0.000132	0
bin	0.000134	0
bin	0.000136	0
bin	0.000138	0
bin	0.00014	0
bin	0.000142	0
bin	0.000144	0
bin	0.000146	0
bin	0.000148	0
bin	0.00015	0
bin	0.000152	0
bin	0.000154	0
bin	0.000156	0
bin	0.000158	0
bin	0.00016	0
bin	0.000162	0
bin	0.000164	0
bin	0.000166	0
scalar FramePreemptionShowcase.host2.app[0].sink droppedPackets:count 8832
attr recordingmode count
attr source packetDropped
attr title "dropped packets, count"
attr unit pk
scalar FramePreemptionShowcase.host2.app[0].sink droppedPacketLengths:sum 84787200
attr interpolationmode none
attr recordingmode sum
attr source packetLength(packetDropped)
attr title "dropped packet lengths, sum"
attr unit b
statistic FramePreemptionShowcase.host2.app[0].sink droppedPacketLengths:histogram
field count 8832
field mean 9600
field stddev 0
field min 9600
field max 9600
field sum 84787200
field sqrsum 813957120000
attr interpolationmode none
attr recordingmode histogram
attr source packetLength(packetDropped)
attr title "dropped packet lengths"
attr unit b
bin	-inf	0
bin	9599	0
bin	9600	8832
bin	9601	0
scalar FramePreemptionShowcase.host2.app[0].io "packets sent" 0
scalar FramePreemptionShowcase.host2.app[0].io "packets received" 8832
scalar FramePreemptionShowcase.host2.app[0].io packetReceived:count 8832
attr interpolationmode none
attr recordingmode count
attr source packetReceived
attr title "packets received, count"
scalar FramePreemptionShowcase.host2.app[0].io packetReceived:sum(packetBytes) 10598400
attr interpolationmode none
attr recordingmode sum(packetBytes)
attr source packetReceived
attr title "packets received, sum(packetBytes)"
scalar FramePreemptionShowcase.host2.app[0].io packetSent:count 0
attr interpolationmode none
attr recordingmode count
attr source packetSent
attr title "packets sent, count"
scalar FramePreemptionShowcase.host2.app[0].io packetSent:sum(packetBytes) 0
attr interpolationmode none
attr recordingmode sum(packetBytes)
attr source packetSent
attr title "packets sent, sum(packetBytes)"
scalar FramePreemptionShowcase.host2.app[1].sink packets:count 993
attr recordingmode count
attr source packetPushed
attr title "packets, count"
attr unit pk
scalar FramePreemptionShowcase.host2.app[1].sink packetLengths:sum 9532800
attr interpolationmode none
attr recordingmode sum
attr source packetLength(packetPushed)
attr title "packet lengths, sum"
attr unit b
statistic FramePreemptionShowcase.host2.app[1].sink packetLengths:histogram
field count 993
field mean 9600
field stddev 0
field min 9600
field max 9600
field sum 9532800
field sqrsum 91514880000
attr interpolationmode none
attr recordingmode histogram
attr source packetLength(packetPushed)
attr title "packet lengths"
attr unit b
bin	-inf	0
bin	9599	0
bin	9600	993
bin	9601	0
statistic FramePreemptionShowcase.host2.app[1].sink meanBitLifeTimePerPacket:histogram
field count 992
field mean 0.0001033672876996
field stddev 7.9813692080047e-06
field min 0.00010037
field max 0.000199765725
field sum 0.102540349398
field sqrsum 1.0662446731185e-05
attr interpolationmode none
attr recordingmode histogram
attr source weightedMeanPerGroup(groupRegionsPerPacket(lifeTimePerRegion(packetPushed)))
attr title "mean bit life time per packet"
attr unit s
bin	-inf	0
bin	9.35e-05	0
bin	9.55e-05	0
bin	9.75e-05	0
bin	9.95e-05	14
bin	0.0001015	898
bin	0.0001035	42
bin	0.0001055	23
bin	0.0001075	0
bin	0.0001095	0
bin	0.0001115	0
bin	0.0001135	0
bin	0.0001155	1
bin	0.0001175	0
bin	0.0001195	0
bin	0.0001215	0
bin	0.0001235	0
bin	0.0001255	1
bin	0.0001275	1
bin	0.0001295	0
bin	0.0001315	0
bin	0.0001335	1
bin	0.0001355	0
bin	0.0001375	1
bin	0.0001395	1
bin	0.0001415	0
bin	0.0001435	0
bin	0.0001455	0
bin	0.0001475	1
bin	0.0001495	1
bin	0.0001515	0
bin	0.0001535	0
bin	0.0001555	0
bin	0.0001575	0
bin	0.0001595	0
bin	0.0001615	0
bin	0.0001635	0
bin	0.0001655	0
bin	0.0001675	0
bin	0.0001695	0
bin	0.0001715	0
bin	0.0001735	0
bin	0.0001755	0
bin	0.0001775	1
bin	0.0001795	0
bin	0.0001815	2
bin	0.0001835	0
bin	0.0001855	0
bin	0.0001875	0
bin	0.0001895	0
bin	0.0001915	1
bin	0.0001935	1
bin	0.0001955	1
bin	0.0001975	0
bin	0.0001995	1
bin	0.0002015	0
statistic FramePreemptionShowcase.host2.app[1].sink packetJitter:histogram
field count 992
field mean 1.0315777520161e-07
field stddev 1.1818963260248e-05
field min -9.7433239e-05
field max 0.00010037
field sum 0.000102332513
field sqrsum 1.3844125790855e-07
attr interpolationmode none
attr recordingmode histogram
attr source jitter(weightedMeanPerGroup(groupRegionsPerPacket(lifeTimePerRegion(packetPushed))))
attr title "packet jitter"
attr unit s
bin	-inf	0
bin	-0.0001	1
bin	-9.6e-05	2
bin	-9.2e-05	1
bin	-8.8e-05	0
bin	-8.4e-05	2
bin	-8e-05	0
bin	-7.6e-05	1
bin	-7.2e-05	0
bin	-6.8e-05	0
bin	-6.4e-05	0
bin	-6e-05	0
bin	-5.6e-05	0
bin	-5.2e-05	1
bin	-4.8e-05	1
bin	-4.4e-05	0
bin	-4e-05	2
bin	-3.6e-05	1
bin	-3.2e-05	0
bin	-2.8e-05	2
bin	-2.4e-05	0
bin	-2e-05	0
bin	-1.6e-05	1
bin	-1.2e-05	0
bin	-8e-06	11
bin	-4e-06	465
bin	0	475
bin	4e-06	10
bin	8e-06	0
bin	1.2e-05	1
bin	1.6e-05	0
bin	2e-05	0
bin	2.4e-05	2
bin	2.8e-05	0
bin	3.2e-05	1
bin	3.6e-05	2
bin	4e-05	0
bin	4.4e-05	1
bin	4.8e-05	1
bin	5.2e-05	0
bin	5.6e-05	0
bin	6e-05	0
bin	6.4e-05	0
bin	6.8e-05	0
bin	7.2e-05	1
bin	7.6e-05	0
bin	8e-05	2
bin	8.4e-05	0
bin	8.8e-05	1
bin	9.2e-05	2
bin	9.6e-05	1
bin	0.0001	1
bin	0.000104	0
bin	0.000108	0
bin	0.000112	0
bin	0.000116	0
bin	0.00012	0
bin	0.000124	0
bin	0.000128	0
bin	0.000132	0
statistic FramePreemptionShowcase.host2.app[1].sink packetDelayDifferenceToMean:histogram
field count 992
field mean -1.5227994453312e-07
field stddev 7.9676828328198e-06
field min -9.6115483668493e-05
field max 3.001682186863e-06
field sum -0.00015106170497686
field sqrsum 6.2935617664946e-08
attr interpolationmode none
attr recordingmode histogram
attr source differenceToMean(weightedMeanPerGroup(groupRegionsPerPacket(lifeTimePerRegion(packetPushed))))
attr title "packet delay difference to mean"
attr unit s
bin	-inf	0
bin	-9.8e-05	1
bin	-9.6e-05	0
bin	-9.4e-05	1
bin	-9.2e-05	1
bin	-9e-05	1
bin	-8.8e-05	0
bin	-8.6e-05	0
bin	-8.4e-05	0
bin	-8.2e-05	0
bin	-8e-05	2
bin	-7.8e-05	0
bin	-7.6e-05	1
bin	-7.4e-05	0
bin	-7.2e-05	0
bin	-7e-05	0
bin	-6.8e-05	0
bin	-6.6e-05	0
bin	-6.4e-05	0
bin	-6.2e-05	0
bin	-6e-05	0
bin	-5.8e-05	0
bin	-5.6e-05	0
bin	-5.4e-05	0
bin	-5.2e-05	0
bin	-5e-05	0
bin	-4.8e-05	2
bin	-4.6e-05	0
bin	-4.4e-05	0
bin	-4.2e-05	0
bin	-4e-05	0
bin	-3.8e-05	2
bin	-3.6e-05	0
bin	-3.4e-05	0
bin	-3.2e-05	1
bin	-3e-05	0
bin	-2.8e-05	0
bin	-2.6e-05	1
bin	-2.4e-05	1
bin	-2.2e-05	0
bin	-2e-05	0
bin	-1.8e-05	0
bin	-1.6e-05	0
bin	-1.4e-05	1
bin	-1.2e-05	0
bin	-1e-05	0
bin	-8e-06	0
bin	-6e-06	0
bin	-4e-06	27
bin	-2e-06	55
bin	0	884
bin	2e-06	11
bin	4e-06	0
bin	6e-06	0
bin	8e-06	0
bin	1e-05	0
statistic FramePreemptionShowcase.host2.app[1].sink packetDelayVariation:histogram
field count 992
field mean 6.9191167348815e-06
field stddev 2.2909889565591e-06
field min 0
field max 9.8776526118593e-06
field sum 0.0068637638010025
field sqrsum 5.2692575705275e-08
attr recordingmode histogram
attr source stddev(weightedMeanPerGroup(groupRegionsPerPacket(lifeTimePerRegion(packetPushed))))
attr title "packet delay variation"
attr unit s
bin	-inf	0
bin	0	1
bin	2e-07	0
bin	4e-07	0
bin	6e-07	8
bin	8e-07	12
bin	1e-06	7
bin	1.2e-06	3
bin	1.4e-06	0
bin	1.6e-06	0
bin	1.8e-06	0
bin	2e-06	26
bin	2.2e-06	27
bin	2.4e-06	21
bin	2.6e-06	17
bin	2.8e-06	11
bin	3e-06	10
bin	3.2e-06	9
bin	3.4e-06	6
bin	3.6e-06	6
bin	3.8e-06	14
bin	4e-06	8
bin	4.2e-06	4
bin	4.4e-06	2
bin	4.6e-06	0
bin	4.8e-06	0
bin	5e-06	0
bin	5.2e-06	0
bin	5.4e-06	0
bin	5.6e-06	0
bin	5.8e-06	0
bin	6e-06	0
bin	6.2e-06	12
bin	6.4e-06	13
bin	6.6e-06	22
bin	6.8e-06	60
bin	7e-06	59
bin	7.2e-06	35
bin	7.4e-06	62
bin	7.6e-06	50
bin	7.8e-06	123
bin	8e-06	90
bin	8.2e-06	52
bin	8.4e-06	45
bin	8.6e-06	45
bin	8.8e-06	34
bin	9e-06	30
bin	9.2e-06	35
bin	9.4e-06	18
bin	9.6e-06	11
bin	9.8e-06	4
bin	1e-05	0
scalar FramePreemptionShowcase.host2.app[1].sink droppedPackets:count 993
attr recordingmode count
attr source packetDropped
attr title "dropped packets, count"
attr unit pk
scalar FramePreemptionShowcase.host2.app[1].sink droppedPacketLengths:sum 9532800
attr interpolationmode none
attr recordingmode sum
attr source packetLength(packetDropped)
attr title "dropped packet lengths, sum"
attr unit b
statistic FramePreemptionShowcase.host2.app[1].sink droppedPacketLengths:histogram
field count 993
field mean 9600
field stddev 0
field min 9600
field max 9600
field sum 9532800
field sqrsum 91514880000
attr interpolationmode none
attr recordingmode histogram
attr source packetLength(packetDropped)
attr title "dropped packet lengths"
attr unit b
bin	-inf	0
bin	9599	0
bin	9600	993
bin	9601	0
scalar FramePreemptionShowcase.host2.app[1].io "packets sent" 0
scalar FramePreemptionShowcase.host2.app[1].io "packets received" 993
scalar FramePreemptionShowcase.host2.app[1].io packetReceived:count 993
attr interpolationmode none
attr recordingmode count
attr source packetReceived
attr title "packets received, count"
scalar FramePreemptionShowcase.host2.app[1].io packetReceived:sum(packetBytes) 1191600
attr interpolationmode none
attr recordingmode sum(packetBytes)
attr source packetReceived
attr title "packets received, sum(packetBytes)"
scalar FramePreemptionShowcase.host2.app[1].io packetSent:count 0
attr interpolationmode none
attr recordingmode count
attr source packetSent
attr title "packets sent, count"
scalar FramePreemptionShowcase.host2.app[1].io packetSent:sum(packetBytes) 0
attr interpolationmode none
attr recordingmode sum(packetBytes)
attr source packetSent
attr title "packets sent, sum(packetBytes)"

