version 3
run RealisticFramePreemption-0-20260206-22:00:29-3563749
attr configname RealisticFramePreemption
attr datetime 20260206-22:00:29
attr datetimef 20260206-220029
attr experiment RealisticFramePreemption
attr inifile omnetpp.ini
attr iterationvars ""
attr iterationvarsd ""
attr iterationvarsf ""
attr measurement ""
attr network FramePreemptionShowcase
attr processid 3563749
attr repetition 0
attr replication #0
attr resultdir results
attr runnumber 0
attr seedset 0
config **.param-recording false
config image-path /home/attila/projects/inet/images
config output-scalar-file results/omnetpp.ini-RealisticFramePreemption-#0.sca
config output-scalar-precision 17
config output-vector-file results/omnetpp.ini-RealisticFramePreemption-#0.vec
config output-vector-precision 17
config record-eventlog false
config sim-time-limit 1s
config extends "RealisticBase, FramePreemption"
config *.host1.app[0].source.packetLength 1200B
config *.host1.app[0].source.productionInterval truncnormal(100us,50us)
config *.host1.app[1].source.packetLength 120B
config *.host1.app[1].source.productionInterval truncnormal(10ms,5ms)
config description "Transmission of low priority frames are preempted by high priority frames"
config *.host*.eth[0].macLayer.typename EthernetPreemptingMacLayer
config *.host*.eth[0].phyLayer.typename EthernetPreemptingPhyLayer
config **.macLayer.*.queue.packetCapacity 4
config **.macLayer.*.queue.typename DropTailQueue
config network FramePreemptionShowcase
config sim-time-limit 1s
config *.*.ethernet.typename EthernetLayer
config *.host*.eth[0].typename LayeredEthernetInterface
config *.host*.eth[0].bitrate 100Mbps
config **.recordPcap true
config **.dumpProtocols "\"ethernetphy\""
config **.checksumMode "\"computed\""
config **.fcsMode "\"computed\""
config **.arp.typename GlobalArp
config *.host1.numApps 2
config *.host1.app[*].typename UdpSourceApp
config *.host1.app[0].source.packetNameFormat "\"background-%c\""
config *.host1.app[1].source.packetNameFormat "\"ts-%c\""
config *.host1.app[*].tagger.typename PacketTagger
config *.host1.app[0].tagger.vlanId 1
config *.host1.app[1].tagger.vlanId 0
config *.host1.app[*].io.destAddress "\"host2\""
config *.host1.app[0].io.destPort 1000
config *.host1.app[1].io.destPort 1001
config *.host1.app[0].source.packetLength 1200B
config *.host1.app[0].source.productionInterval truncnormal(100us,50us)
config *.host1.app[0].source.initialProductionOffset 5us
config *.host1.app[1].source.packetLength 1200B
config *.host1.app[1].source.productionInterval truncnormal(1ms,500us)
config *.host2.numApps 2
config *.host2.app[*].typename UdpSinkApp
config *.host2.app[0].io.localPort 1000
config *.host2.app[1].io.localPort 1001

scalar FramePreemptionShowcase.host1.ethernet.macHeaderInserter outgoingPackets:count 9864
scalar FramePreemptionShowcase.host1.ethernet.macHeaderInserter outgoingPacketLengths:sum 97127424
scalar FramePreemptionShowcase.host1.ethernet.macHeaderInserter flowOutgoingPacketLengths:sum 0
scalar FramePreemptionShowcase.host1.ethernet.macHeaderInserter incomingPackets:count 9864
scalar FramePreemptionShowcase.host1.ethernet.macHeaderInserter incomingPacketLengths:sum 96022656
scalar FramePreemptionShowcase.host1.ethernet.macHeaderInserter flowIncomingPacketLengths:sum 0
scalar FramePreemptionShowcase.host1.ethernet.paddingInserter outgoingPackets:count 9864
scalar FramePreemptionShowcase.host1.ethernet.paddingInserter outgoingPacketLengths:sum 97127424
scalar FramePreemptionShowcase.host1.ethernet.paddingInserter flowOutgoingPacketLengths:sum 0
scalar FramePreemptionShowcase.host1.ethernet.paddingInserter incomingPackets:count 9864
scalar FramePreemptionShowcase.host1.ethernet.paddingInserter incomingPacketLengths:sum 97127424
scalar FramePreemptionShowcase.host1.ethernet.paddingInserter flowIncomingPacketLengths:sum 0
scalar FramePreemptionShowcase.host1.ethernet.fcsInserter outgoingPackets:count 9864
scalar FramePreemptionShowcase.host1.ethernet.fcsInserter outgoingPacketLengths:sum 97443072
scalar FramePreemptionShowcase.host1.ethernet.fcsInserter flowOutgoingPacketLengths:sum 0
scalar FramePreemptionShowcase.host1.ethernet.fcsInserter incomingPackets:count 9864
scalar FramePreemptionShowcase.host1.ethernet.fcsInserter incomingPacketLengths:sum 97127424
scalar FramePreemptionShowcase.host1.ethernet.fcsInserter flowIncomingPacketLengths:sum 0
scalar FramePreemptionShowcase.host1.ethernet.macHeaderChecker outgoingPackets:count 0
scalar FramePreemptionShowcase.host1.ethernet.macHeaderChecker outgoingPacketLengths:sum 0
scalar FramePreemptionShowcase.host1.ethernet.macHeaderChecker flowOutgoingPacketLengths:sum 0
scalar FramePreemptionShowcase.host1.ethernet.macHeaderChecker incomingPackets:count 0
scalar FramePreemptionShowcase.host1.ethernet.macHeaderChecker incomingPacketLengths:sum 0
scalar FramePreemptionShowcase.host1.ethernet.macHeaderChecker flowIncomingPacketLengths:sum 0
scalar FramePreemptionShowcase.host1.ethernet.macHeaderChecker droppedPackets:count 0
scalar FramePreemptionShowcase.host1.ethernet.macHeaderChecker droppedPacketLengths:sum 0
scalar FramePreemptionShowcase.host1.ethernet.macHeaderChecker flowDroppedPacketLengths:sum 0
scalar FramePreemptionShowcase.host1.ethernet.fcsChecker outgoingPackets:count 0
scalar FramePreemptionShowcase.host1.ethernet.fcsChecker outgoingPacketLengths:sum 0
scalar FramePreemptionShowcase.host1.ethernet.fcsChecker flowOutgoingPacketLengths:sum 0
scalar FramePreemptionShowcase.host1.ethernet.fcsChecker incomingPackets:count 0
scalar FramePreemptionShowcase.host1.ethernet.fcsChecker incomingPacketLengths:sum 0
scalar FramePreemptionShowcase.host1.ethernet.fcsChecker flowIncomingPacketLengths:sum 0
scalar FramePreemptionShowcase.host1.ethernet.fcsChecker droppedPackets:count 0
scalar FramePreemptionShowcase.host1.ethernet.fcsChecker droppedPacketLengths:sum 0
scalar FramePreemptionShowcase.host1.ethernet.fcsChecker flowDroppedPacketLengths:sum 0
scalar FramePreemptionShowcase.host1.lo[0].lo rcvdPkFromHl:count 0
scalar FramePreemptionShowcase.host1.lo[0].lo rcvdPkFromHl:sum(packetBytes) 0
scalar FramePreemptionShowcase.host1.lo[0].lo passedUpPk:count 0
scalar FramePreemptionShowcase.host1.lo[0].lo passedUpPk:sum(packetBytes) 0
scalar FramePreemptionShowcase.host1.lo[0] packetDropInterfaceDown:count 0
scalar FramePreemptionShowcase.host1.lo[0] packetDropInterfaceDown:sum(packetBytes) 0
scalar FramePreemptionShowcase.host1.lo[0] packetDropNoCarrier:count 0
scalar FramePreemptionShowcase.host1.lo[0] packetDropNoCarrier:sum(packetBytes) 0
scalar FramePreemptionShowcase.host1.eth[0].macLayer.outboundClassifier packets:count 9864
scalar FramePreemptionShowcase.host1.eth[0].macLayer.outboundClassifier packetLengths:sum 97443072
scalar FramePreemptionShowcase.host1.eth[0].macLayer.expressMacLayer.queue queueLength:last 0
scalar FramePreemptionShowcase.host1.eth[0].macLayer.expressMacLayer.queue queueLength:max 1
scalar FramePreemptionShowcase.host1.eth[0].macLayer.expressMacLayer.queue queueLength:timeavg 0.00020581332500000001
scalar FramePreemptionShowcase.host1.eth[0].macLayer.expressMacLayer.queue queueBitLength:last 0
scalar FramePreemptionShowcase.host1.eth[0].macLayer.expressMacLayer.queue queueBitLength:max 1328
scalar FramePreemptionShowcase.host1.eth[0].macLayer.expressMacLayer.queue queueBitLength:timeavg 0.27332009560000015
scalar FramePreemptionShowcase.host1.eth[0].macLayer.expressMacLayer.queue outgoingPackets:count 102
scalar FramePreemptionShowcase.host1.eth[0].macLayer.expressMacLayer.queue outgoingPacketLengths:sum 135456
scalar FramePreemptionShowcase.host1.eth[0].macLayer.expressMacLayer.queue incomingPackets:count 102
scalar FramePreemptionShowcase.host1.eth[0].macLayer.expressMacLayer.queue incomingPacketLengths:sum 135456
scalar FramePreemptionShowcase.host1.eth[0].macLayer.expressMacLayer.queue droppedPacketsQueueOverflow:count 0
scalar FramePreemptionShowcase.host1.eth[0].macLayer.expressMacLayer.queue droppedPacketLengthsQueueOverflow:sum 0
scalar FramePreemptionShowcase.host1.eth[0].macLayer.expressMacLayer.outboundEmitter outgoingPackets:count 204
scalar FramePreemptionShowcase.host1.eth[0].macLayer.expressMacLayer.outboundEmitter outgoingPacketLengths:sum 270912
scalar FramePreemptionShowcase.host1.eth[0].macLayer.expressMacLayer.outboundEmitter flowOutgoingPacketLengths:sum 0
scalar FramePreemptionShowcase.host1.eth[0].macLayer.expressMacLayer.outboundEmitter incomingPackets:count 204
scalar FramePreemptionShowcase.host1.eth[0].macLayer.expressMacLayer.outboundEmitter incomingPacketLengths:sum 270912
scalar FramePreemptionShowcase.host1.eth[0].macLayer.expressMacLayer.outboundEmitter flowIncomingPacketLengths:sum 0
scalar FramePreemptionShowcase.host1.eth[0].macLayer.expressMacLayer.fcsChecker outgoingPackets:count 0
scalar FramePreemptionShowcase.host1.eth[0].macLayer.expressMacLayer.fcsChecker outgoingPacketLengths:sum 0
scalar FramePreemptionShowcase.host1.eth[0].macLayer.expressMacLayer.fcsChecker flowOutgoingPacketLengths:sum 0
scalar FramePreemptionShowcase.host1.eth[0].macLayer.expressMacLayer.fcsChecker incomingPackets:count 0
scalar FramePreemptionShowcase.host1.eth[0].macLayer.expressMacLayer.fcsChecker incomingPacketLengths:sum 0
scalar FramePreemptionShowcase.host1.eth[0].macLayer.expressMacLayer.fcsChecker flowIncomingPacketLengths:sum 0
scalar FramePreemptionShowcase.host1.eth[0].macLayer.expressMacLayer.fcsChecker droppedPackets:count 0
scalar FramePreemptionShowcase.host1.eth[0].macLayer.expressMacLayer.fcsChecker droppedPacketLengths:sum 0
scalar FramePreemptionShowcase.host1.eth[0].macLayer.expressMacLayer.fcsChecker flowDroppedPacketLengths:sum 0
scalar FramePreemptionShowcase.host1.eth[0].macLayer.expressMacLayer.inboundEmitter outgoingPackets:count 0
scalar FramePreemptionShowcase.host1.eth[0].macLayer.expressMacLayer.inboundEmitter outgoingPacketLengths:sum 0
scalar FramePreemptionShowcase.host1.eth[0].macLayer.expressMacLayer.inboundEmitter flowOutgoingPacketLengths:sum 0
scalar FramePreemptionShowcase.host1.eth[0].macLayer.expressMacLayer.inboundEmitter incomingPackets:count 0
scalar FramePreemptionShowcase.host1.eth[0].macLayer.expressMacLayer.inboundEmitter incomingPacketLengths:sum 0
scalar FramePreemptionShowcase.host1.eth[0].macLayer.expressMacLayer.inboundEmitter flowIncomingPacketLengths:sum 0
scalar FramePreemptionShowcase.host1.eth[0].macLayer.preemptableMacLayer.queue queueLength:last 2
scalar FramePreemptionShowcase.host1.eth[0].macLayer.preemptableMacLayer.queue queueLength:max 4
scalar FramePreemptionShowcase.host1.eth[0].macLayer.preemptableMacLayer.queue queueLength:timeavg 1.5885330569069758
scalar FramePreemptionShowcase.host1.eth[0].macLayer.preemptableMacLayer.queue queueBitLength:last 19936
scalar FramePreemptionShowcase.host1.eth[0].macLayer.preemptableMacLayer.queue queueBitLength:max 39872
scalar FramePreemptionShowcase.host1.eth[0].macLayer.preemptableMacLayer.queue queueBitLength:timeavg 15834.497511248926
scalar FramePreemptionShowcase.host1.eth[0].macLayer.preemptableMacLayer.queue outgoingPackets:count 9566
scalar FramePreemptionShowcase.host1.eth[0].macLayer.preemptableMacLayer.queue outgoingPacketLengths:sum 95353888
scalar FramePreemptionShowcase.host1.eth[0].macLayer.preemptableMacLayer.queue incomingPackets:count 9762
scalar FramePreemptionShowcase.host1.eth[0].macLayer.preemptableMacLayer.queue incomingPacketLengths:sum 97307616
scalar FramePreemptionShowcase.host1.eth[0].macLayer.preemptableMacLayer.queue droppedPacketsQueueOverflow:count 194
scalar FramePreemptionShowcase.host1.eth[0].macLayer.preemptableMacLayer.queue droppedPacketLengthsQueueOverflow:sum 1933792
scalar FramePreemptionShowcase.host1.eth[0].macLayer.preemptableMacLayer.fcsRemover outgoingPackets:count 9566
scalar FramePreemptionShowcase.host1.eth[0].macLayer.preemptableMacLayer.fcsRemover outgoingPacketLengths:sum 95047776
scalar FramePreemptionShowcase.host1.eth[0].macLayer.preemptableMacLayer.fcsRemover flowOutgoingPacketLengths:sum 0
scalar FramePreemptionShowcase.host1.eth[0].macLayer.preemptableMacLayer.fcsRemover incomingPackets:count 9566
scalar FramePreemptionShowcase.host1.eth[0].macLayer.preemptableMacLayer.fcsRemover incomingPacketLengths:sum 95353888
scalar FramePreemptionShowcase.host1.eth[0].macLayer.preemptableMacLayer.fcsRemover flowIncomingPacketLengths:sum 0
scalar FramePreemptionShowcase.host1.eth[0].macLayer.preemptableMacLayer.fcsRemover droppedPackets:count 0
scalar FramePreemptionShowcase.host1.eth[0].macLayer.preemptableMacLayer.fcsRemover droppedPacketLengths:sum 0
scalar FramePreemptionShowcase.host1.eth[0].macLayer.preemptableMacLayer.fcsRemover flowDroppedPacketLengths:sum 0
scalar FramePreemptionShowcase.host1.eth[0].macLayer.preemptableMacLayer.fragmentFcsInserter outgoingPackets:count 19315
scalar FramePreemptionShowcase.host1.eth[0].macLayer.preemptableMacLayer.fragmentFcsInserter outgoingPacketLengths:sum 191190296
scalar FramePreemptionShowcase.host1.eth[0].macLayer.preemptableMacLayer.fragmentFcsInserter flowOutgoingPacketLengths:sum 0
scalar FramePreemptionShowcase.host1.eth[0].macLayer.preemptableMacLayer.fragmentFcsInserter incomingPackets:count 19315
scalar FramePreemptionShowcase.host1.eth[0].macLayer.preemptableMacLayer.fragmentFcsInserter incomingPacketLengths:sum 190572216
scalar FramePreemptionShowcase.host1.eth[0].macLayer.preemptableMacLayer.fragmentFcsInserter flowIncomingPacketLengths:sum 0
scalar FramePreemptionShowcase.host1.eth[0].macLayer.preemptableMacLayer.outboundEmitter outgoingPackets:count 19315
scalar FramePreemptionShowcase.host1.eth[0].macLayer.preemptableMacLayer.outboundEmitter outgoingPacketLengths:sum 191190296
scalar FramePreemptionShowcase.host1.eth[0].macLayer.preemptableMacLayer.outboundEmitter flowOutgoingPacketLengths:sum 0
scalar FramePreemptionShowcase.host1.eth[0].macLayer.preemptableMacLayer.outboundEmitter incomingPackets:count 19315
scalar FramePreemptionShowcase.host1.eth[0].macLayer.preemptableMacLayer.outboundEmitter incomingPacketLengths:sum 191190296
scalar FramePreemptionShowcase.host1.eth[0].macLayer.preemptableMacLayer.outboundEmitter flowIncomingPacketLengths:sum 0
scalar FramePreemptionShowcase.host1.eth[0].macLayer.preemptableMacLayer.fcsInserter outgoingPackets:count 0
scalar FramePreemptionShowcase.host1.eth[0].macLayer.preemptableMacLayer.fcsInserter outgoingPacketLengths:sum 0
scalar FramePreemptionShowcase.host1.eth[0].macLayer.preemptableMacLayer.fcsInserter flowOutgoingPacketLengths:sum 0
scalar FramePreemptionShowcase.host1.eth[0].macLayer.preemptableMacLayer.fcsInserter incomingPackets:count 0
scalar FramePreemptionShowcase.host1.eth[0].macLayer.preemptableMacLayer.fcsInserter incomingPacketLengths:sum 0
scalar FramePreemptionShowcase.host1.eth[0].macLayer.preemptableMacLayer.fcsInserter flowIncomingPacketLengths:sum 0
scalar FramePreemptionShowcase.host1.eth[0].macLayer.preemptableMacLayer.fragmentFcsChecker outgoingPackets:count 0
scalar FramePreemptionShowcase.host1.eth[0].macLayer.preemptableMacLayer.fragmentFcsChecker outgoingPacketLengths:sum 0
scalar FramePreemptionShowcase.host1.eth[0].macLayer.preemptableMacLayer.fragmentFcsChecker flowOutgoingPacketLengths:sum 0
scalar FramePreemptionShowcase.host1.eth[0].macLayer.preemptableMacLayer.fragmentFcsChecker incomingPackets:count 0
scalar FramePreemptionShowcase.host1.eth[0].macLayer.preemptableMacLayer.fragmentFcsChecker incomingPacketLengths:sum 0
scalar FramePreemptionShowcase.host1.eth[0].macLayer.preemptableMacLayer.fragmentFcsChecker flowIncomingPacketLengths:sum 0
scalar FramePreemptionShowcase.host1.eth[0].macLayer.preemptableMacLayer.fragmentFcsChecker droppedPackets:count 0
scalar FramePreemptionShowcase.host1.eth[0].macLayer.preemptableMacLayer.fragmentFcsChecker droppedPacketLengths:sum 0
scalar FramePreemptionShowcase.host1.eth[0].macLayer.preemptableMacLayer.fragmentFcsChecker flowDroppedPacketLengths:sum 0
scalar FramePreemptionShowcase.host1.eth[0].macLayer.preemptableMacLayer.inboundEmitter outgoingPackets:count 0
scalar FramePreemptionShowcase.host1.eth[0].macLayer.preemptableMacLayer.inboundEmitter outgoingPacketLengths:sum 0
scalar FramePreemptionShowcase.host1.eth[0].macLayer.preemptableMacLayer.inboundEmitter flowOutgoingPacketLengths:sum 0
scalar FramePreemptionShowcase.host1.eth[0].macLayer.preemptableMacLayer.inboundEmitter incomingPackets:count 0
scalar FramePreemptionShowcase.host1.eth[0].macLayer.preemptableMacLayer.inboundEmitter incomingPacketLengths:sum 0
scalar FramePreemptionShowcase.host1.eth[0].macLayer.preemptableMacLayer.inboundEmitter flowIncomingPacketLengths:sum 0
scalar FramePreemptionShowcase.host1.eth[0].macLayer.scheduler packets:count 9759
scalar FramePreemptionShowcase.host1.eth[0].macLayer.scheduler packetLengths:sum 95482320
scalar FramePreemptionShowcase.host1.eth[0].macLayer.preemptingServer incomingPackets:count 0
scalar FramePreemptionShowcase.host1.eth[0].macLayer.preemptingServer incomingPacketLengths:sum 0
scalar FramePreemptionShowcase.host1.eth[0].macLayer.preemptingServer outgoingPackets:count 0
scalar FramePreemptionShowcase.host1.eth[0].macLayer.preemptingServer outgoingPacketLengths:sum 0
scalar FramePreemptionShowcase.host1.eth[0].macLayer.inboundClassifier packets:count 0
scalar FramePreemptionShowcase.host1.eth[0].macLayer.inboundClassifier packetLengths:sum 0
scalar FramePreemptionShowcase.host1.eth[0].macLayer.multiplexer packets:count 0
scalar FramePreemptionShowcase.host1.eth[0].macLayer.multiplexer packetLengths:sum 0
scalar FramePreemptionShowcase.host1.eth[0].phyLayer.c1 packets:count 9759
scalar FramePreemptionShowcase.host1.eth[0].phyLayer.c1 packetLengths:sum 95482320
scalar FramePreemptionShowcase.host1.eth[0].phyLayer.phyHeaderInserter outgoingPackets:count 102
scalar FramePreemptionShowcase.host1.eth[0].phyLayer.phyHeaderInserter outgoingPacketLengths:sum 141984
scalar FramePreemptionShowcase.host1.eth[0].phyLayer.phyHeaderInserter flowOutgoingPacketLengths:sum 0
scalar FramePreemptionShowcase.host1.eth[0].phyLayer.phyHeaderInserter incomingPackets:count 0
scalar FramePreemptionShowcase.host1.eth[0].phyLayer.phyHeaderInserter incomingPacketLengths:sum 0
scalar FramePreemptionShowcase.host1.eth[0].phyLayer.phyHeaderInserter flowIncomingPacketLengths:sum 0
scalar FramePreemptionShowcase.host1.eth[0].phyLayer.fragmentPhyHeaderInserter outgoingPackets:count 9657
scalar FramePreemptionShowcase.host1.eth[0].phyLayer.fragmentPhyHeaderInserter outgoingPacketLengths:sum 95964912
scalar FramePreemptionShowcase.host1.eth[0].phyLayer.fragmentPhyHeaderInserter flowOutgoingPacketLengths:sum 0
scalar FramePreemptionShowcase.host1.eth[0].phyLayer.fragmentPhyHeaderInserter incomingPackets:count 0
scalar FramePreemptionShowcase.host1.eth[0].phyLayer.fragmentPhyHeaderInserter incomingPacketLengths:sum 0
scalar FramePreemptionShowcase.host1.eth[0].phyLayer.fragmentPhyHeaderInserter flowIncomingPacketLengths:sum 0
scalar FramePreemptionShowcase.host1.eth[0].phyLayer.m1 packets:count 9759
scalar FramePreemptionShowcase.host1.eth[0].phyLayer.m1 packetLengths:sum 96106896
scalar FramePreemptionShowcase.host1.eth[0].phyLayer.outboundEmitter outgoingPackets:count 9759
scalar FramePreemptionShowcase.host1.eth[0].phyLayer.outboundEmitter outgoingPacketLengths:sum 96106896
scalar FramePreemptionShowcase.host1.eth[0].phyLayer.outboundEmitter flowOutgoingPacketLengths:sum 0
scalar FramePreemptionShowcase.host1.eth[0].phyLayer.outboundEmitter incomingPackets:count 0
scalar FramePreemptionShowcase.host1.eth[0].phyLayer.outboundEmitter incomingPacketLengths:sum 0
scalar FramePreemptionShowcase.host1.eth[0].phyLayer.outboundEmitter flowIncomingPacketLengths:sum 0
scalar FramePreemptionShowcase.host1.eth[0].phyLayer.transmitter propagationTime 4.9999999999999998e-08
scalar FramePreemptionShowcase.host1.eth[0].phyLayer.m2 packets:count 0
scalar FramePreemptionShowcase.host1.eth[0].phyLayer.m2 packetLengths:sum 0
scalar FramePreemptionShowcase.host1.eth[0].phyLayer.fragmentPhyHeaderChecker outgoingPackets:count 0
scalar FramePreemptionShowcase.host1.eth[0].phyLayer.fragmentPhyHeaderChecker outgoingPacketLengths:sum 0
scalar FramePreemptionShowcase.host1.eth[0].phyLayer.fragmentPhyHeaderChecker flowOutgoingPacketLengths:sum 0
scalar FramePreemptionShowcase.host1.eth[0].phyLayer.fragmentPhyHeaderChecker incomingPackets:count 0
scalar FramePreemptionShowcase.host1.eth[0].phyLayer.fragmentPhyHeaderChecker incomingPacketLengths:sum 0
scalar FramePreemptionShowcase.host1.eth[0].phyLayer.fragmentPhyHeaderChecker flowIncomingPacketLengths:sum 0
scalar FramePreemptionShowcase.host1.eth[0].phyLayer.fragmentPhyHeaderChecker droppedPackets:count 0
scalar FramePreemptionShowcase.host1.eth[0].phyLayer.fragmentPhyHeaderChecker droppedPacketLengths:sum 0
scalar FramePreemptionShowcase.host1.eth[0].phyLayer.fragmentPhyHeaderChecker flowDroppedPacketLengths:sum 0
scalar FramePreemptionShowcase.host1.eth[0].phyLayer.phyHeaderChecker outgoingPackets:count 0
scalar FramePreemptionShowcase.host1.eth[0].phyLayer.phyHeaderChecker outgoingPacketLengths:sum 0
scalar FramePreemptionShowcase.host1.eth[0].phyLayer.phyHeaderChecker flowOutgoingPacketLengths:sum 0
scalar FramePreemptionShowcase.host1.eth[0].phyLayer.phyHeaderChecker incomingPackets:count 0
scalar FramePreemptionShowcase.host1.eth[0].phyLayer.phyHeaderChecker incomingPacketLengths:sum 0
scalar FramePreemptionShowcase.host1.eth[0].phyLayer.phyHeaderChecker flowIncomingPacketLengths:sum 0
scalar FramePreemptionShowcase.host1.eth[0].phyLayer.phyHeaderChecker droppedPackets:count 0
scalar FramePreemptionShowcase.host1.eth[0].phyLayer.phyHeaderChecker droppedPacketLengths:sum 0
scalar FramePreemptionShowcase.host1.eth[0].phyLayer.phyHeaderChecker flowDroppedPacketLengths:sum 0
scalar FramePreemptionShowcase.host1.eth[0].phyLayer.c2 packets:count 0
scalar FramePreemptionShowcase.host1.eth[0].phyLayer.c2 packetLengths:sum 0
scalar FramePreemptionShowcase.host1.eth[0].phyLayer.inboundEmitter outgoingPackets:count 0
scalar FramePreemptionShowcase.host1.eth[0].phyLayer.inboundEmitter outgoingPacketLengths:sum 0
scalar FramePreemptionShowcase.host1.eth[0].phyLayer.inboundEmitter flowOutgoingPacketLengths:sum 0
scalar FramePreemptionShowcase.host1.eth[0].phyLayer.inboundEmitter incomingPackets:count 0
scalar FramePreemptionShowcase.host1.eth[0].phyLayer.inboundEmitter incomingPacketLengths:sum 0
scalar FramePreemptionShowcase.host1.eth[0].phyLayer.inboundEmitter flowIncomingPacketLengths:sum 0
scalar FramePreemptionShowcase.host1.eth[0] packetDropInterfaceDown:count 0
scalar FramePreemptionShowcase.host1.eth[0] packetDropInterfaceDown:sum(packetBytes) 0
scalar FramePreemptionShowcase.host1.eth[0] packetDropNoCarrier:count 0
scalar FramePreemptionShowcase.host1.eth[0] packetDropNoCarrier:sum(packetBytes) 0
scalar FramePreemptionShowcase.host1.ipv4.ip packetDropAddressResolutionFailed:count 0
scalar FramePreemptionShowcase.host1.ipv4.ip packetDropAddressResolutionFailed:sum(packetBytes) 0
scalar FramePreemptionShowcase.host1.ipv4.ip packetDropHopLimitReached:count 0
scalar FramePreemptionShowcase.host1.ipv4.ip packetDropHopLimitReached:sum(packetBytes) 0
scalar FramePreemptionShowcase.host1.ipv4.ip packetDropForwardingDisabled:count 0
scalar FramePreemptionShowcase.host1.ipv4.ip packetDropForwardingDisabled:sum(packetBytes) 0
scalar FramePreemptionShowcase.host1.ipv4.ip packetDropLifetimeExpired:count 0
scalar FramePreemptionShowcase.host1.ipv4.ip packetDropLifetimeExpired:sum(packetBytes) 0
scalar FramePreemptionShowcase.host1.ipv4.ip packetDropNoInterfaceFound:count 0
scalar FramePreemptionShowcase.host1.ipv4.ip packetDropNoInterfaceFound:sum(packetBytes) 0
scalar FramePreemptionShowcase.host1.ipv4.ip packetDropNoRouteFound:count 0
scalar FramePreemptionShowcase.host1.ipv4.ip packetDropNoRouteFound:sum(packetBytes) 0
scalar FramePreemptionShowcase.host1.ipv4.ip packetDropUndefined:count 0
scalar FramePreemptionShowcase.host1.ipv4.ip packetDropUndefined:sum(packetBytes) 0
scalar FramePreemptionShowcase.host1.udp packetReceived:count 0
scalar FramePreemptionShowcase.host1.udp packetReceived:sum(packetBytes) 0
scalar FramePreemptionShowcase.host1.udp packetSent:count 9864
scalar FramePreemptionShowcase.host1.udp packetSent:sum(packetBytes) 11805552
scalar FramePreemptionShowcase.host1.udp passedUpPk:count 0
scalar FramePreemptionShowcase.host1.udp droppedPkWrongPort:count 0
scalar FramePreemptionShowcase.host1.udp droppedPkBadChecksum:count 0
scalar FramePreemptionShowcase.host1.app[0].source packets:count 9762
scalar FramePreemptionShowcase.host1.app[0].source packetLengths:sum 93715200
scalar FramePreemptionShowcase.host1.app[0].tagger outgoingPackets:count 9762
scalar FramePreemptionShowcase.host1.app[0].tagger outgoingPacketLengths:sum 93715200
scalar FramePreemptionShowcase.host1.app[0].tagger flowOutgoingPacketLengths:sum 0
scalar FramePreemptionShowcase.host1.app[0].tagger incomingPackets:count 9762
scalar FramePreemptionShowcase.host1.app[0].tagger incomingPacketLengths:sum 93715200
scalar FramePreemptionShowcase.host1.app[0].tagger flowIncomingPacketLengths:sum 0
scalar FramePreemptionShowcase.host1.app[0].io "packets sent" 9762
scalar FramePreemptionShowcase.host1.app[0].io "packets received" 0
scalar FramePreemptionShowcase.host1.app[0].io packetReceived:count 0
scalar FramePreemptionShowcase.host1.app[0].io packetReceived:sum(packetBytes) 0
scalar FramePreemptionShowcase.host1.app[0].io packetSent:count 9762
scalar FramePreemptionShowcase.host1.app[0].io packetSent:sum(packetBytes) 11714400
scalar FramePreemptionShowcase.host1.app[1].source packets:count 102
scalar FramePreemptionShowcase.host1.app[1].source packetLengths:sum 97920
scalar FramePreemptionShowcase.host1.app[1].tagger outgoingPackets:count 102
scalar FramePreemptionShowcase.host1.app[1].tagger outgoingPacketLengths:sum 97920
scalar FramePreemptionShowcase.host1.app[1].tagger flowOutgoingPacketLengths:sum 0
scalar FramePreemptionShowcase.host1.app[1].tagger incomingPackets:count 102
scalar FramePreemptionShowcase.host1.app[1].tagger incomingPacketLengths:sum 97920
scalar FramePreemptionShowcase.host1.app[1].tagger flowIncomingPacketLengths:sum 0
scalar FramePreemptionShowcase.host1.app[1].io "packets sent" 102
scalar FramePreemptionShowcase.host1.app[1].io "packets received" 0
scalar FramePreemptionShowcase.host1.app[1].io packetReceived:count 0
scalar FramePreemptionShowcase.host1.app[1].io packetReceived:sum(packetBytes) 0
scalar FramePreemptionShowcase.host1.app[1].io packetSent:count 102
scalar FramePreemptionShowcase.host1.app[1].io packetSent:sum(packetBytes) 12240
scalar FramePreemptionShowcase.host2.ethernet.macHeaderInserter outgoingPackets:count 0
scalar FramePreemptionShowcase.host2.ethernet.macHeaderInserter outgoingPacketLengths:sum 0
scalar FramePreemptionShowcase.host2.ethernet.macHeaderInserter flowOutgoingPacketLengths:sum 0
scalar FramePreemptionShowcase.host2.ethernet.macHeaderInserter incomingPackets:count 0
scalar FramePreemptionShowcase.host2.ethernet.macHeaderInserter incomingPacketLengths:sum 0
scalar FramePreemptionShowcase.host2.ethernet.macHeaderInserter flowIncomingPacketLengths:sum 0
scalar FramePreemptionShowcase.host2.ethernet.paddingInserter outgoingPackets:count 0
scalar FramePreemptionShowcase.host2.ethernet.paddingInserter outgoingPacketLengths:sum 0
scalar FramePreemptionShowcase.host2.ethernet.paddingInserter flowOutgoingPacketLengths:sum 0
scalar FramePreemptionShowcase.host2.ethernet.paddingInserter incomingPackets:count 0
scalar FramePreemptionShowcase.host2.ethernet.paddingInserter incomingPacketLengths:sum 0
scalar FramePreemptionShowcase.host2.ethernet.paddingInserter flowIncomingPacketLengths:sum 0
scalar FramePreemptionShowcase.host2.ethernet.fcsInserter outgoingPackets:count 0
scalar FramePreemptionShowcase.host2.ethernet.fcsInserter outgoingPacketLengths:sum 0
scalar FramePreemptionShowcase.host2.ethernet.fcsInserter flowOutgoingPacketLengths:sum 0
scalar FramePreemptionShowcase.host2.ethernet.fcsInserter incomingPackets:count 0
scalar FramePreemptionShowcase.host2.ethernet.fcsInserter incomingPacketLengths:sum 0
scalar FramePreemptionShowcase.host2.ethernet.fcsInserter flowIncomingPacketLengths:sum 0
scalar FramePreemptionShowcase.host2.ethernet.macHeaderChecker outgoingPackets:count 9667
scalar FramePreemptionShowcase.host2.ethernet.macHeaderChecker outgoingPacketLengths:sum 94087328
scalar FramePreemptionShowcase.host2.ethernet.macHeaderChecker flowOutgoingPacketLengths:sum 0
scalar FramePreemptionShowcase.host2.ethernet.macHeaderChecker incomingPackets:count 9667
scalar FramePreemptionShowcase.host2.ethernet.macHeaderChecker incomingPacketLengths:sum 95170032
scalar FramePreemptionShowcase.host2.ethernet.macHeaderChecker flowIncomingPacketLengths:sum 0
scalar FramePreemptionShowcase.host2.ethernet.macHeaderChecker droppedPackets:count 0
scalar FramePreemptionShowcase.host2.ethernet.macHeaderChecker droppedPacketLengths:sum 0
scalar FramePreemptionShowcase.host2.ethernet.macHeaderChecker flowDroppedPacketLengths:sum 0
scalar FramePreemptionShowcase.host2.ethernet.fcsChecker outgoingPackets:count 9667
scalar FramePreemptionShowcase.host2.ethernet.fcsChecker outgoingPacketLengths:sum 95170032
scalar FramePreemptionShowcase.host2.ethernet.fcsChecker flowOutgoingPacketLengths:sum 0
scalar FramePreemptionShowcase.host2.ethernet.fcsChecker incomingPackets:count 9667
scalar FramePreemptionShowcase.host2.ethernet.fcsChecker incomingPacketLengths:sum 95479376
scalar FramePreemptionShowcase.host2.ethernet.fcsChecker flowIncomingPacketLengths:sum 0
scalar FramePreemptionShowcase.host2.ethernet.fcsChecker droppedPackets:count 0
scalar FramePreemptionShowcase.host2.ethernet.fcsChecker droppedPacketLengths:sum 0
scalar FramePreemptionShowcase.host2.ethernet.fcsChecker flowDroppedPacketLengths:sum 0
scalar FramePreemptionShowcase.host2.lo[0].lo rcvdPkFromHl:count 0
scalar FramePreemptionShowcase.host2.lo[0].lo rcvdPkFromHl:sum(packetBytes) 0
scalar FramePreemptionShowcase.host2.lo[0].lo passedUpPk:count 0
scalar FramePreemptionShowcase.host2.lo[0].lo passedUpPk:sum(packetBytes) 0
scalar FramePreemptionShowcase.host2.lo[0] packetDropInterfaceDown:count 0
scalar FramePreemptionShowcase.host2.lo[0] packetDropInterfaceDown:sum(packetBytes) 0
scalar FramePreemptionShowcase.host2.lo[0] packetDropNoCarrier:count 0
scalar FramePreemptionShowcase.host2.lo[0] packetDropNoCarrier:sum(packetBytes) 0
scalar FramePreemptionShowcase.host2.eth[0].macLayer.outboundClassifier packets:count 0
scalar FramePreemptionShowcase.host2.eth[0].macLayer.outboundClassifier packetLengths:sum 0
scalar FramePreemptionShowcase.host2.eth[0].macLayer.expressMacLayer.queue queueLength:last 0
scalar FramePreemptionShowcase.host2.eth[0].macLayer.expressMacLayer.queue queueLength:max 0
scalar FramePreemptionShowcase.host2.eth[0].macLayer.expressMacLayer.queue queueLength:timeavg 0
scalar FramePreemptionShowcase.host2.eth[0].macLayer.expressMacLayer.queue queueBitLength:last 0
scalar FramePreemptionShowcase.host2.eth[0].macLayer.expressMacLayer.queue queueBitLength:max 0
scalar FramePreemptionShowcase.host2.eth[0].macLayer.expressMacLayer.queue queueBitLength:timeavg 0
scalar FramePreemptionShowcase.host2.eth[0].macLayer.expressMacLayer.queue outgoingPackets:count 0
scalar FramePreemptionShowcase.host2.eth[0].macLayer.expressMacLayer.queue outgoingPacketLengths:sum 0
scalar FramePreemptionShowcase.host2.eth[0].macLayer.expressMacLayer.queue incomingPackets:count 0
scalar FramePreemptionShowcase.host2.eth[0].macLayer.expressMacLayer.queue incomingPacketLengths:sum 0
scalar FramePreemptionShowcase.host2.eth[0].macLayer.expressMacLayer.queue droppedPacketsQueueOverflow:count 0
scalar FramePreemptionShowcase.host2.eth[0].macLayer.expressMacLayer.queue droppedPacketLengthsQueueOverflow:sum 0
scalar FramePreemptionShowcase.host2.eth[0].macLayer.expressMacLayer.outboundEmitter outgoingPackets:count 0
scalar FramePreemptionShowcase.host2.eth[0].macLayer.expressMacLayer.outboundEmitter outgoingPacketLengths:sum 0
scalar FramePreemptionShowcase.host2.eth[0].macLayer.expressMacLayer.outboundEmitter flowOutgoingPacketLengths:sum 0
scalar FramePreemptionShowcase.host2.eth[0].macLayer.expressMacLayer.outboundEmitter incomingPackets:count 0
scalar FramePreemptionShowcase.host2.eth[0].macLayer.expressMacLayer.outboundEmitter incomingPacketLengths:sum 0
scalar FramePreemptionShowcase.host2.eth[0].macLayer.expressMacLayer.outboundEmitter flowIncomingPacketLengths:sum 0
scalar FramePreemptionShowcase.host2.eth[0].macLayer.expressMacLayer.fcsChecker outgoingPackets:count 102
scalar FramePreemptionShowcase.host2.eth[0].macLayer.expressMacLayer.fcsChecker outgoingPacketLengths:sum 135456
scalar FramePreemptionShowcase.host2.eth[0].macLayer.expressMacLayer.fcsChecker flowOutgoingPacketLengths:sum 0
scalar FramePreemptionShowcase.host2.eth[0].macLayer.expressMacLayer.fcsChecker incomingPackets:count 102
scalar FramePreemptionShowcase.host2.eth[0].macLayer.expressMacLayer.fcsChecker incomingPacketLengths:sum 135456
scalar FramePreemptionShowcase.host2.eth[0].macLayer.expressMacLayer.fcsChecker flowIncomingPacketLengths:sum 0
scalar FramePreemptionShowcase.host2.eth[0].macLayer.expressMacLayer.fcsChecker droppedPackets:count 0
scalar FramePreemptionShowcase.host2.eth[0].macLayer.expressMacLayer.fcsChecker droppedPacketLengths:sum 0
scalar FramePreemptionShowcase.host2.eth[0].macLayer.expressMacLayer.fcsChecker flowDroppedPacketLengths:sum 0
scalar FramePreemptionShowcase.host2.eth[0].macLayer.expressMacLayer.inboundEmitter outgoingPackets:count 102
scalar FramePreemptionShowcase.host2.eth[0].macLayer.expressMacLayer.inboundEmitter outgoingPacketLengths:sum 135456
scalar FramePreemptionShowcase.host2.eth[0].macLayer.expressMacLayer.inboundEmitter flowOutgoingPacketLengths:sum 0
scalar FramePreemptionShowcase.host2.eth[0].macLayer.expressMacLayer.inboundEmitter incomingPackets:count 102
scalar FramePreemptionShowcase.host2.eth[0].macLayer.expressMacLayer.inboundEmitter incomingPacketLengths:sum 135456
scalar FramePreemptionShowcase.host2.eth[0].macLayer.expressMacLayer.inboundEmitter flowIncomingPacketLengths:sum 0
scalar FramePreemptionShowcase.host2.eth[0].macLayer.preemptableMacLayer.queue queueLength:last 0
scalar FramePreemptionShowcase.host2.eth[0].macLayer.preemptableMacLayer.queue queueLength:max 0
scalar FramePreemptionShowcase.host2.eth[0].macLayer.preemptableMacLayer.queue queueLength:timeavg 0
scalar FramePreemptionShowcase.host2.eth[0].macLayer.preemptableMacLayer.queue queueBitLength:last 0
scalar FramePreemptionShowcase.host2.eth[0].macLayer.preemptableMacLayer.queue queueBitLength:max 0
scalar FramePreemptionShowcase.host2.eth[0].macLayer.preemptableMacLayer.queue queueBitLength:timeavg 0
scalar FramePreemptionShowcase.host2.eth[0].macLayer.preemptableMacLayer.queue outgoingPackets:count 0
scalar FramePreemptionShowcase.host2.eth[0].macLayer.preemptableMacLayer.queue outgoingPacketLengths:sum 0
scalar FramePreemptionShowcase.host2.eth[0].macLayer.preemptableMacLayer.queue incomingPackets:count 0
scalar FramePreemptionShowcase.host2.eth[0].macLayer.preemptableMacLayer.queue incomingPacketLengths:sum 0
scalar FramePreemptionShowcase.host2.eth[0].macLayer.preemptableMacLayer.queue droppedPacketsQueueOverflow:count 0
scalar FramePreemptionShowcase.host2.eth[0].macLayer.preemptableMacLayer.queue droppedPacketLengthsQueueOverflow:sum 0
scalar FramePreemptionShowcase.host2.eth[0].macLayer.preemptableMacLayer.fcsRemover outgoingPackets:count 0
scalar FramePreemptionShowcase.host2.eth[0].macLayer.preemptableMacLayer.fcsRemover outgoingPacketLengths:sum 0
scalar FramePreemptionShowcase.host2.eth[0].macLayer.preemptableMacLayer.fcsRemover flowOutgoingPacketLengths:sum 0
scalar FramePreemptionShowcase.host2.eth[0].macLayer.preemptableMacLayer.fcsRemover incomingPackets:count 0
scalar FramePreemptionShowcase.host2.eth[0].macLayer.preemptableMacLayer.fcsRemover incomingPacketLengths:sum 0
scalar FramePreemptionShowcase.host2.eth[0].macLayer.preemptableMacLayer.fcsRemover flowIncomingPacketLengths:sum 0
scalar FramePreemptionShowcase.host2.eth[0].macLayer.preemptableMacLayer.fcsRemover droppedPackets:count 0
scalar FramePreemptionShowcase.host2.eth[0].macLayer.preemptableMacLayer.fcsRemover droppedPacketLengths:sum 0
scalar FramePreemptionShowcase.host2.eth[0].macLayer.preemptableMacLayer.fcsRemover flowDroppedPacketLengths:sum 0
scalar FramePreemptionShowcase.host2.eth[0].macLayer.preemptableMacLayer.fragmentFcsInserter outgoingPackets:count 0
scalar FramePreemptionShowcase.host2.eth[0].macLayer.preemptableMacLayer.fragmentFcsInserter outgoingPacketLengths:sum 0
scalar FramePreemptionShowcase.host2.eth[0].macLayer.preemptableMacLayer.fragmentFcsInserter flowOutgoingPacketLengths:sum 0
scalar FramePreemptionShowcase.host2.eth[0].macLayer.preemptableMacLayer.fragmentFcsInserter incomingPackets:count 0
scalar FramePreemptionShowcase.host2.eth[0].macLayer.preemptableMacLayer.fragmentFcsInserter incomingPacketLengths:sum 0
scalar FramePreemptionShowcase.host2.eth[0].macLayer.preemptableMacLayer.fragmentFcsInserter flowIncomingPacketLengths:sum 0
scalar FramePreemptionShowcase.host2.eth[0].macLayer.preemptableMacLayer.outboundEmitter outgoingPackets:count 0
scalar FramePreemptionShowcase.host2.eth[0].macLayer.preemptableMacLayer.outboundEmitter outgoingPacketLengths:sum 0
scalar FramePreemptionShowcase.host2.eth[0].macLayer.preemptableMacLayer.outboundEmitter flowOutgoingPacketLengths:sum 0
scalar FramePreemptionShowcase.host2.eth[0].macLayer.preemptableMacLayer.outboundEmitter incomingPackets:count 0
scalar FramePreemptionShowcase.host2.eth[0].macLayer.preemptableMacLayer.outboundEmitter incomingPacketLengths:sum 0
scalar FramePreemptionShowcase.host2.eth[0].macLayer.preemptableMacLayer.outboundEmitter flowIncomingPacketLengths:sum 0
scalar FramePreemptionShowcase.host2.eth[0].macLayer.preemptableMacLayer.fcsInserter outgoingPackets:count 9565
scalar FramePreemptionShowcase.host2.eth[0].macLayer.preemptableMacLayer.fcsInserter outgoingPacketLengths:sum 95343920
scalar FramePreemptionShowcase.host2.eth[0].macLayer.preemptableMacLayer.fcsInserter flowOutgoingPacketLengths:sum 0
scalar FramePreemptionShowcase.host2.eth[0].macLayer.preemptableMacLayer.fcsInserter incomingPackets:count 9565
scalar FramePreemptionShowcase.host2.eth[0].macLayer.preemptableMacLayer.fcsInserter incomingPacketLengths:sum 95037840
scalar FramePreemptionShowcase.host2.eth[0].macLayer.preemptableMacLayer.fcsInserter flowIncomingPacketLengths:sum 0
scalar FramePreemptionShowcase.host2.eth[0].macLayer.preemptableMacLayer.fragmentFcsChecker outgoingPackets:count 9657
scalar FramePreemptionShowcase.host2.eth[0].macLayer.preemptableMacLayer.fragmentFcsChecker outgoingPacketLengths:sum 95037840
scalar FramePreemptionShowcase.host2.eth[0].macLayer.preemptableMacLayer.fragmentFcsChecker flowOutgoingPacketLengths:sum 0
scalar FramePreemptionShowcase.host2.eth[0].macLayer.preemptableMacLayer.fragmentFcsChecker incomingPackets:count 9657
scalar FramePreemptionShowcase.host2.eth[0].macLayer.preemptableMacLayer.fragmentFcsChecker incomingPacketLengths:sum 95346864
scalar FramePreemptionShowcase.host2.eth[0].macLayer.preemptableMacLayer.fragmentFcsChecker flowIncomingPacketLengths:sum 0
scalar FramePreemptionShowcase.host2.eth[0].macLayer.preemptableMacLayer.fragmentFcsChecker droppedPackets:count 0
scalar FramePreemptionShowcase.host2.eth[0].macLayer.preemptableMacLayer.fragmentFcsChecker droppedPacketLengths:sum 0
scalar FramePreemptionShowcase.host2.eth[0].macLayer.preemptableMacLayer.fragmentFcsChecker flowDroppedPacketLengths:sum 0
scalar FramePreemptionShowcase.host2.eth[0].macLayer.preemptableMacLayer.inboundEmitter outgoingPackets:count 9657
scalar FramePreemptionShowcase.host2.eth[0].macLayer.preemptableMacLayer.inboundEmitter outgoingPacketLengths:sum 95346864
scalar FramePreemptionShowcase.host2.eth[0].macLayer.preemptableMacLayer.inboundEmitter flowOutgoingPacketLengths:sum 0
scalar FramePreemptionShowcase.host2.eth[0].macLayer.preemptableMacLayer.inboundEmitter incomingPackets:count 9657
scalar FramePreemptionShowcase.host2.eth[0].macLayer.preemptableMacLayer.inboundEmitter incomingPacketLengths:sum 95346864
scalar FramePreemptionShowcase.host2.eth[0].macLayer.preemptableMacLayer.inboundEmitter flowIncomingPacketLengths:sum 0
scalar FramePreemptionShowcase.host2.eth[0].macLayer.scheduler packets:count 0
scalar FramePreemptionShowcase.host2.eth[0].macLayer.scheduler packetLengths:sum 0
scalar FramePreemptionShowcase.host2.eth[0].macLayer.preemptingServer incomingPackets:count 0
scalar FramePreemptionShowcase.host2.eth[0].macLayer.preemptingServer incomingPacketLengths:sum 0
scalar FramePreemptionShowcase.host2.eth[0].macLayer.preemptingServer outgoingPackets:count 0
scalar FramePreemptionShowcase.host2.eth[0].macLayer.preemptingServer outgoingPacketLengths:sum 0
scalar FramePreemptionShowcase.host2.eth[0].macLayer.inboundClassifier packets:count 9759
scalar FramePreemptionShowcase.host2.eth[0].macLayer.inboundClassifier packetLengths:sum 95482320
scalar FramePreemptionShowcase.host2.eth[0].macLayer.multiplexer packets:count 0
scalar FramePreemptionShowcase.host2.eth[0].macLayer.multiplexer packetLengths:sum 0
scalar FramePreemptionShowcase.host2.eth[0].phyLayer.c1 packets:count 0
scalar FramePreemptionShowcase.host2.eth[0].phyLayer.c1 packetLengths:sum 0
scalar FramePreemptionShowcase.host2.eth[0].phyLayer.phyHeaderInserter outgoingPackets:count 0
scalar FramePreemptionShowcase.host2.eth[0].phyLayer.phyHeaderInserter outgoingPacketLengths:sum 0
scalar FramePreemptionShowcase.host2.eth[0].phyLayer.phyHeaderInserter flowOutgoingPacketLengths:sum 0
scalar FramePreemptionShowcase.host2.eth[0].phyLayer.phyHeaderInserter incomingPackets:count 0
scalar FramePreemptionShowcase.host2.eth[0].phyLayer.phyHeaderInserter incomingPacketLengths:sum 0
scalar FramePreemptionShowcase.host2.eth[0].phyLayer.phyHeaderInserter flowIncomingPacketLengths:sum 0
scalar FramePreemptionShowcase.host2.eth[0].phyLayer.fragmentPhyHeaderInserter outgoingPackets:count 0
scalar FramePreemptionShowcase.host2.eth[0].phyLayer.fragmentPhyHeaderInserter outgoingPacketLengths:sum 0
scalar FramePreemptionShowcase.host2.eth[0].phyLayer.fragmentPhyHeaderInserter flowOutgoingPacketLengths:sum 0
scalar FramePreemptionShowcase.host2.eth[0].phyLayer.fragmentPhyHeaderInserter incomingPackets:count 0
scalar FramePreemptionShowcase.host2.eth[0].phyLayer.fragmentPhyHeaderInserter incomingPacketLengths:sum 0
scalar FramePreemptionShowcase.host2.eth[0].phyLayer.fragmentPhyHeaderInserter flowIncomingPacketLengths:sum 0
scalar FramePreemptionShowcase.host2.eth[0].phyLayer.m1 packets:count 0
scalar FramePreemptionShowcase.host2.eth[0].phyLayer.m1 packetLengths:sum 0
scalar FramePreemptionShowcase.host2.eth[0].phyLayer.outboundEmitter outgoingPackets:count 0
scalar FramePreemptionShowcase.host2.eth[0].phyLayer.outboundEmitter outgoingPacketLengths:sum 0
scalar FramePreemptionShowcase.host2.eth[0].phyLayer.outboundEmitter flowOutgoingPacketLengths:sum 0
scalar FramePreemptionShowcase.host2.eth[0].phyLayer.outboundEmitter incomingPackets:count 0
scalar FramePreemptionShowcase.host2.eth[0].phyLayer.outboundEmitter incomingPacketLengths:sum 0
scalar FramePreemptionShowcase.host2.eth[0].phyLayer.outboundEmitter flowIncomingPacketLengths:sum 0
scalar FramePreemptionShowcase.host2.eth[0].phyLayer.transmitter propagationTime 4.9999999999999998e-08
scalar FramePreemptionShowcase.host2.eth[0].phyLayer.m2 packets:count 0
scalar FramePreemptionShowcase.host2.eth[0].phyLayer.m2 packetLengths:sum 0
scalar FramePreemptionShowcase.host2.eth[0].phyLayer.fragmentPhyHeaderChecker outgoingPackets:count 9657
scalar FramePreemptionShowcase.host2.eth[0].phyLayer.fragmentPhyHeaderChecker outgoingPacketLengths:sum 95346864
scalar FramePreemptionShowcase.host2.eth[0].phyLayer.fragmentPhyHeaderChecker flowOutgoingPacketLengths:sum 0
scalar FramePreemptionShowcase.host2.eth[0].phyLayer.fragmentPhyHeaderChecker incomingPackets:count 9657
scalar FramePreemptionShowcase.host2.eth[0].phyLayer.fragmentPhyHeaderChecker incomingPacketLengths:sum 95964912
scalar FramePreemptionShowcase.host2.eth[0].phyLayer.fragmentPhyHeaderChecker flowIncomingPacketLengths:sum 0
scalar FramePreemptionShowcase.host2.eth[0].phyLayer.fragmentPhyHeaderChecker droppedPackets:count 0
scalar FramePreemptionShowcase.host2.eth[0].phyLayer.fragmentPhyHeaderChecker droppedPacketLengths:sum 0
scalar FramePreemptionShowcase.host2.eth[0].phyLayer.fragmentPhyHeaderChecker flowDroppedPacketLengths:sum 0
scalar FramePreemptionShowcase.host2.eth[0].phyLayer.phyHeaderChecker outgoingPackets:count 102
scalar FramePreemptionShowcase.host2.eth[0].phyLayer.phyHeaderChecker outgoingPacketLengths:sum 135456
scalar FramePreemptionShowcase.host2.eth[0].phyLayer.phyHeaderChecker flowOutgoingPacketLengths:sum 0
scalar FramePreemptionShowcase.host2.eth[0].phyLayer.phyHeaderChecker incomingPackets:count 102
scalar FramePreemptionShowcase.host2.eth[0].phyLayer.phyHeaderChecker incomingPacketLengths:sum 141984
scalar FramePreemptionShowcase.host2.eth[0].phyLayer.phyHeaderChecker flowIncomingPacketLengths:sum 0
scalar FramePreemptionShowcase.host2.eth[0].phyLayer.phyHeaderChecker droppedPackets:count 0
scalar FramePreemptionShowcase.host2.eth[0].phyLayer.phyHeaderChecker droppedPacketLengths:sum 0
scalar FramePreemptionShowcase.host2.eth[0].phyLayer.phyHeaderChecker flowDroppedPacketLengths:sum 0
scalar FramePreemptionShowcase.host2.eth[0].phyLayer.c2 packets:count 9759
scalar FramePreemptionShowcase.host2.eth[0].phyLayer.c2 packetLengths:sum 96106896
scalar FramePreemptionShowcase.host2.eth[0].phyLayer.inboundEmitter outgoingPackets:count 9759
scalar FramePreemptionShowcase.host2.eth[0].phyLayer.inboundEmitter outgoingPacketLengths:sum 96106896
scalar FramePreemptionShowcase.host2.eth[0].phyLayer.inboundEmitter flowOutgoingPacketLengths:sum 0
scalar FramePreemptionShowcase.host2.eth[0].phyLayer.inboundEmitter incomingPackets:count 9759
scalar FramePreemptionShowcase.host2.eth[0].phyLayer.inboundEmitter incomingPacketLengths:sum 96106896
scalar FramePreemptionShowcase.host2.eth[0].phyLayer.inboundEmitter flowIncomingPacketLengths:sum 0
scalar FramePreemptionShowcase.host2.eth[0] packetDropInterfaceDown:count 0
scalar FramePreemptionShowcase.host2.eth[0] packetDropInterfaceDown:sum(packetBytes) 0
scalar FramePreemptionShowcase.host2.eth[0] packetDropNoCarrier:count 0
scalar FramePreemptionShowcase.host2.eth[0] packetDropNoCarrier:sum(packetBytes) 0
scalar FramePreemptionShowcase.host2.ipv4.ip packetDropAddressResolutionFailed:count 0
scalar FramePreemptionShowcase.host2.ipv4.ip packetDropAddressResolutionFailed:sum(packetBytes) 0
scalar FramePreemptionShowcase.host2.ipv4.ip packetDropHopLimitReached:count 0
scalar FramePreemptionShowcase.host2.ipv4.ip packetDropHopLimitReached:sum(packetBytes) 0
scalar FramePreemptionShowcase.host2.ipv4.ip packetDropForwardingDisabled:count 0
scalar FramePreemptionShowcase.host2.ipv4.ip packetDropForwardingDisabled:sum(packetBytes) 0
scalar FramePreemptionShowcase.host2.ipv4.ip packetDropLifetimeExpired:count 0
scalar FramePreemptionShowcase.host2.ipv4.ip packetDropLifetimeExpired:sum(packetBytes) 0
scalar FramePreemptionShowcase.host2.ipv4.ip packetDropNoInterfaceFound:count 0
scalar FramePreemptionShowcase.host2.ipv4.ip packetDropNoInterfaceFound:sum(packetBytes) 0
scalar FramePreemptionShowcase.host2.ipv4.ip packetDropNoRouteFound:count 0
scalar FramePreemptionShowcase.host2.ipv4.ip packetDropNoRouteFound:sum(packetBytes) 0
scalar FramePreemptionShowcase.host2.ipv4.ip packetDropUndefined:count 0
scalar FramePreemptionShowcase.host2.ipv4.ip packetDropUndefined:sum(packetBytes) 0
scalar FramePreemptionShowcase.host2.udp packetReceived:count 9667
scalar FramePreemptionShowcase.host2.udp packetReceived:sum(packetBytes) 11567576
scalar FramePreemptionShowcase.host2.udp packetSent:count 0
scalar FramePreemptionShowcase.host2.udp packetSent:sum(packetBytes) 0
scalar FramePreemptionShowcase.host2.udp passedUpPk:count 9667
scalar FramePreemptionShowcase.host2.udp droppedPkWrongPort:count 0
scalar FramePreemptionShowcase.host2.udp droppedPkBadChecksum:count 0
scalar FramePreemptionShowcase.host2.app[0].sink packets:count 9565
scalar FramePreemptionShowcase.host2.app[0].sink packetLengths:sum 91824000
scalar FramePreemptionShowcase.host2.app[0].sink droppedPackets:count 9565
scalar FramePreemptionShowcase.host2.app[0].sink droppedPacketLengths:sum 91824000
scalar FramePreemptionShowcase.host2.app[0].io "packets sent" 0
scalar FramePreemptionShowcase.host2.app[0].io "packets received" 9565
scalar FramePreemptionShowcase.host2.app[0].io packetReceived:count 9565
scalar FramePreemptionShowcase.host2.app[0].io packetReceived:sum(packetBytes) 11478000
scalar FramePreemptionShowcase.host2.app[0].io packetSent:count 0
scalar FramePreemptionShowcase.host2.app[0].io packetSent:sum(packetBytes) 0
scalar FramePreemptionShowcase.host2.app[1].sink packets:count 102
scalar FramePreemptionShowcase.host2.app[1].sink packetLengths:sum 97920
scalar FramePreemptionShowcase.host2.app[1].sink droppedPackets:count 102
scalar FramePreemptionShowcase.host2.app[1].sink droppedPacketLengths:sum 97920
scalar FramePreemptionShowcase.host2.app[1].io "packets sent" 0
scalar FramePreemptionShowcase.host2.app[1].io "packets received" 102
scalar FramePreemptionShowcase.host2.app[1].io packetReceived:count 102
scalar FramePreemptionShowcase.host2.app[1].io packetReceived:sum(packetBytes) 12240
scalar FramePreemptionShowcase.host2.app[1].io packetSent:count 0
scalar FramePreemptionShowcase.host2.app[1].io packetSent:sum(packetBytes) 0
scalar FramePreemptionShowcase.host1.ethernet.macHeaderInserter outgoingPacketLengths:histogram:count 9864
scalar FramePreemptionShowcase.host1.ethernet.macHeaderInserter outgoingPacketLengths:histogram:sumweights 9864
scalar FramePreemptionShowcase.host1.ethernet.macHeaderInserter outgoingPacketLengths:histogram:mean 9846.6569343065694
scalar FramePreemptionShowcase.host1.ethernet.macHeaderInserter outgoingPacketLengths:histogram:stddev 874.08200961474881
scalar FramePreemptionShowcase.host1.ethernet.macHeaderInserter outgoingPacketLengths:histogram:min 1296
scalar FramePreemptionShowcase.host1.ethernet.macHeaderInserter outgoingPacketLengths:histogram:max 9936
scalar FramePreemptionShowcase.host1.ethernet.macHeaderInserter outgoingPacketLengths:histogram:numbins 61
scalar FramePreemptionShowcase.host1.ethernet.macHeaderInserter outgoingPacketLengths:histogram:rangemin 0
scalar FramePreemptionShowcase.host1.ethernet.macHeaderInserter outgoingPacketLengths:histogram:rangemax 12200
scalar FramePreemptionShowcase.host1.ethernet.macHeaderInserter outgoingPacketLengths:histogram:underflows 0
scalar FramePreemptionShowcase.host1.ethernet.macHeaderInserter outgoingPacketLengths:histogram:overflows 0
scalar FramePreemptionShowcase.host1.ethernet.macHeaderInserter flowOutgoingPacketLengths:histogram:count 0
scalar FramePreemptionShowcase.host1.ethernet.macHeaderInserter flowOutgoingPacketLengths:histogram:sumweights 0
scalar FramePreemptionShowcase.host1.ethernet.macHeaderInserter flowOutgoingPacketLengths:histogram:mean -nan
scalar FramePreemptionShowcase.host1.ethernet.macHeaderInserter flowOutgoingPacketLengths:histogram:stddev nan
scalar FramePreemptionShowcase.host1.ethernet.macHeaderInserter flowOutgoingPacketLengths:histogram:min nan
scalar FramePreemptionShowcase.host1.ethernet.macHeaderInserter flowOutgoingPacketLengths:histogram:max nan
scalar FramePreemptionShowcase.host1.ethernet.macHeaderInserter flowOutgoingPacketLengths:histogram:numbins 1
scalar FramePreemptionShowcase.host1.ethernet.macHeaderInserter flowOutgoingPacketLengths:histogram:rangemin 0
scalar FramePreemptionShowcase.host1.ethernet.macHeaderInserter flowOutgoingPacketLengths:histogram:rangemax 1
scalar FramePreemptionShowcase.host1.ethernet.macHeaderInserter flowOutgoingPacketLengths:histogram:underflows 0
scalar FramePreemptionShowcase.host1.ethernet.macHeaderInserter flowOutgoingPacketLengths:histogram:overflows 0
scalar FramePreemptionShowcase.host1.ethernet.macHeaderInserter incomingPacketLengths:histogram:count 9864
scalar FramePreemptionShowcase.host1.ethernet.macHeaderInserter incomingPacketLengths:histogram:sumweights 9864
scalar FramePreemptionShowcase.host1.ethernet.macHeaderInserter incomingPacketLengths:histogram:mean 9734.6569343065694
scalar FramePreemptionShowcase.host1.ethernet.macHeaderInserter incomingPacketLengths:histogram:stddev 874.08200961474881
scalar FramePreemptionShowcase.host1.ethernet.macHeaderInserter incomingPacketLengths:histogram:min 1184
scalar FramePreemptionShowcase.host1.ethernet.macHeaderInserter incomingPacketLengths:histogram:max 9824
scalar FramePreemptionShowcase.host1.ethernet.macHeaderInserter incomingPacketLengths:histogram:numbins 60
scalar FramePreemptionShowcase.host1.ethernet.macHeaderInserter incomingPacketLengths:histogram:rangemin 0
scalar FramePreemptionShowcase.host1.ethernet.macHeaderInserter incomingPacketLengths:histogram:rangemax 12000
scalar FramePreemptionShowcase.host1.ethernet.macHeaderInserter incomingPacketLengths:histogram:underflows 0
scalar FramePreemptionShowcase.host1.ethernet.macHeaderInserter incomingPacketLengths:histogram:overflows 0
scalar FramePreemptionShowcase.host1.ethernet.macHeaderInserter flowIncomingPacketLengths:histogram:count 0
scalar FramePreemptionShowcase.host1.ethernet.macHeaderInserter flowIncomingPacketLengths:histogram:sumweights 0
scalar FramePreemptionShowcase.host1.ethernet.macHeaderInserter flowIncomingPacketLengths:histogram:mean -nan
scalar FramePreemptionShowcase.host1.ethernet.macHeaderInserter flowIncomingPacketLengths:histogram:stddev nan
scalar FramePreemptionShowcase.host1.ethernet.macHeaderInserter flowIncomingPacketLengths:histogram:min nan
scalar FramePreemptionShowcase.host1.ethernet.macHeaderInserter flowIncomingPacketLengths:histogram:max nan
scalar FramePreemptionShowcase.host1.ethernet.macHeaderInserter flowIncomingPacketLengths:histogram:numbins 1
scalar FramePreemptionShowcase.host1.ethernet.macHeaderInserter flowIncomingPacketLengths:histogram:rangemin 0
scalar FramePreemptionShowcase.host1.ethernet.macHeaderInserter flowIncomingPacketLengths:histogram:rangemax 1
scalar FramePreemptionShowcase.host1.ethernet.macHeaderInserter flowIncomingPacketLengths:histogram:underflows 0
scalar FramePreemptionShowcase.host1.ethernet.macHeaderInserter flowIncomingPacketLengths:histogram:overflows 0
scalar FramePreemptionShowcase.host1.ethernet.paddingInserter outgoingPacketLengths:histogram:count 9864
scalar FramePreemptionShowcase.host1.ethernet.paddingInserter outgoingPacketLengths:histogram:sumweights 9864
scalar FramePreemptionShowcase.host1.ethernet.paddingInserter outgoingPacketLengths:histogram:mean 9846.6569343065694
scalar FramePreemptionShowcase.host1.ethernet.paddingInserter outgoingPacketLengths:histogram:stddev 874.08200961474881
scalar FramePreemptionShowcase.host1.ethernet.paddingInserter outgoingPacketLengths:histogram:min 1296
scalar FramePreemptionShowcase.host1.ethernet.paddingInserter outgoingPacketLengths:histogram:max 9936
scalar FramePreemptionShowcase.host1.ethernet.paddingInserter outgoingPacketLengths:histogram:numbins 61
scalar FramePreemptionShowcase.host1.ethernet.paddingInserter outgoingPacketLengths:histogram:rangemin 0
scalar FramePreemptionShowcase.host1.ethernet.paddingInserter outgoingPacketLengths:histogram:rangemax 12200
scalar FramePreemptionShowcase.host1.ethernet.paddingInserter outgoingPacketLengths:histogram:underflows 0
scalar FramePreemptionShowcase.host1.ethernet.paddingInserter outgoingPacketLengths:histogram:overflows 0
scalar FramePreemptionShowcase.host1.ethernet.paddingInserter flowOutgoingPacketLengths:histogram:count 0
scalar FramePreemptionShowcase.host1.ethernet.paddingInserter flowOutgoingPacketLengths:histogram:sumweights 0
scalar FramePreemptionShowcase.host1.ethernet.paddingInserter flowOutgoingPacketLengths:histogram:mean -nan
scalar FramePreemptionShowcase.host1.ethernet.paddingInserter flowOutgoingPacketLengths:histogram:stddev nan
scalar FramePreemptionShowcase.host1.ethernet.paddingInserter flowOutgoingPacketLengths:histogram:min nan
scalar FramePreemptionShowcase.host1.ethernet.paddingInserter flowOutgoingPacketLengths:histogram:max nan
scalar FramePreemptionShowcase.host1.ethernet.paddingInserter flowOutgoingPacketLengths:histogram:numbins 1
scalar FramePreemptionShowcase.host1.ethernet.paddingInserter flowOutgoingPacketLengths:histogram:rangemin 0
scalar FramePreemptionShowcase.host1.ethernet.paddingInserter flowOutgoingPacketLengths:histogram:rangemax 1
scalar FramePreemptionShowcase.host1.ethernet.paddingInserter flowOutgoingPacketLengths:histogram:underflows 0
scalar FramePreemptionShowcase.host1.ethernet.paddingInserter flowOutgoingPacketLengths:histogram:overflows 0
scalar FramePreemptionShowcase.host1.ethernet.paddingInserter incomingPacketLengths:histogram:count 9864
scalar FramePreemptionShowcase.host1.ethernet.paddingInserter incomingPacketLengths:histogram:sumweights 9864
scalar FramePreemptionShowcase.host1.ethernet.paddingInserter incomingPacketLengths:histogram:mean 9846.6569343065694
scalar FramePreemptionShowcase.host1.ethernet.paddingInserter incomingPacketLengths:histogram:stddev 874.08200961474881
scalar FramePreemptionShowcase.host1.ethernet.paddingInserter incomingPacketLengths:histogram:min 1296
scalar FramePreemptionShowcase.host1.ethernet.paddingInserter incomingPacketLengths:histogram:max 9936
scalar FramePreemptionShowcase.host1.ethernet.paddingInserter incomingPacketLengths:histogram:numbins 61
scalar FramePreemptionShowcase.host1.ethernet.paddingInserter incomingPacketLengths:histogram:rangemin 0
scalar FramePreemptionShowcase.host1.ethernet.paddingInserter incomingPacketLengths:histogram:rangemax 12200
scalar FramePreemptionShowcase.host1.ethernet.paddingInserter incomingPacketLengths:histogram:underflows 0
scalar FramePreemptionShowcase.host1.ethernet.paddingInserter incomingPacketLengths:histogram:overflows 0
scalar FramePreemptionShowcase.host1.ethernet.paddingInserter flowIncomingPacketLengths:histogram:count 0
scalar FramePreemptionShowcase.host1.ethernet.paddingInserter flowIncomingPacketLengths:histogram:sumweights 0
scalar FramePreemptionShowcase.host1.ethernet.paddingInserter flowIncomingPacketLengths:histogram:mean -nan
scalar FramePreemptionShowcase.host1.ethernet.paddingInserter flowIncomingPacketLengths:histogram:stddev nan
scalar FramePreemptionShowcase.host1.ethernet.paddingInserter flowIncomingPacketLengths:histogram:min nan
scalar FramePreemptionShowcase.host1.ethernet.paddingInserter flowIncomingPacketLengths:histogram:max nan
scalar FramePreemptionShowcase.host1.ethernet.paddingInserter flowIncomingPacketLengths:histogram:numbins 1
scalar FramePreemptionShowcase.host1.ethernet.paddingInserter flowIncomingPacketLengths:histogram:rangemin 0
scalar FramePreemptionShowcase.host1.ethernet.paddingInserter flowIncomingPacketLengths:histogram:rangemax 1
scalar FramePreemptionShowcase.host1.ethernet.paddingInserter flowIncomingPacketLengths:histogram:underflows 0
scalar FramePreemptionShowcase.host1.ethernet.paddingInserter flowIncomingPacketLengths:histogram:overflows 0
scalar FramePreemptionShowcase.host1.ethernet.fcsInserter outgoingPacketLengths:histogram:count 9864
scalar FramePreemptionShowcase.host1.ethernet.fcsInserter outgoingPacketLengths:histogram:sumweights 9864
scalar FramePreemptionShowcase.host1.ethernet.fcsInserter outgoingPacketLengths:histogram:mean 9878.6569343065694
scalar FramePreemptionShowcase.host1.ethernet.fcsInserter outgoingPacketLengths:histogram:stddev 874.08200961474881
scalar FramePreemptionShowcase.host1.ethernet.fcsInserter outgoingPacketLengths:histogram:min 1328
scalar FramePreemptionShowcase.host1.ethernet.fcsInserter outgoingPacketLengths:histogram:max 9968
scalar FramePreemptionShowcase.host1.ethernet.fcsInserter outgoingPacketLengths:histogram:numbins 61
scalar FramePreemptionShowcase.host1.ethernet.fcsInserter outgoingPacketLengths:histogram:rangemin 0
scalar FramePreemptionShowcase.host1.ethernet.fcsInserter outgoingPacketLengths:histogram:rangemax 12200
scalar FramePreemptionShowcase.host1.ethernet.fcsInserter outgoingPacketLengths:histogram:underflows 0
scalar FramePreemptionShowcase.host1.ethernet.fcsInserter outgoingPacketLengths:histogram:overflows 0
scalar FramePreemptionShowcase.host1.ethernet.fcsInserter flowOutgoingPacketLengths:histogram:count 0
scalar FramePreemptionShowcase.host1.ethernet.fcsInserter flowOutgoingPacketLengths:histogram:sumweights 0
scalar FramePreemptionShowcase.host1.ethernet.fcsInserter flowOutgoingPacketLengths:histogram:mean -nan
scalar FramePreemptionShowcase.host1.ethernet.fcsInserter flowOutgoingPacketLengths:histogram:stddev nan
scalar FramePreemptionShowcase.host1.ethernet.fcsInserter flowOutgoingPacketLengths:histogram:min nan
scalar FramePreemptionShowcase.host1.ethernet.fcsInserter flowOutgoingPacketLengths:histogram:max nan
scalar FramePreemptionShowcase.host1.ethernet.fcsInserter flowOutgoingPacketLengths:histogram:numbins 1
scalar FramePreemptionShowcase.host1.ethernet.fcsInserter flowOutgoingPacketLengths:histogram:rangemin 0
scalar FramePreemptionShowcase.host1.ethernet.fcsInserter flowOutgoingPacketLengths:histogram:rangemax 1
scalar FramePreemptionShowcase.host1.ethernet.fcsInserter flowOutgoingPacketLengths:histogram:underflows 0
scalar FramePreemptionShowcase.host1.ethernet.fcsInserter flowOutgoingPacketLengths:histogram:overflows 0
scalar FramePreemptionShowcase.host1.ethernet.fcsInserter incomingPacketLengths:histogram:count 9864
scalar FramePreemptionShowcase.host1.ethernet.fcsInserter incomingPacketLengths:histogram:sumweights 9864
scalar FramePreemptionShowcase.host1.ethernet.fcsInserter incomingPacketLengths:histogram:mean 9846.6569343065694
scalar FramePreemptionShowcase.host1.ethernet.fcsInserter incomingPacketLengths:histogram:stddev 874.08200961474881
scalar FramePreemptionShowcase.host1.ethernet.fcsInserter incomingPacketLengths:histogram:min 1296
scalar FramePreemptionShowcase.host1.ethernet.fcsInserter incomingPacketLengths:histogram:max 9936
scalar FramePreemptionShowcase.host1.ethernet.fcsInserter incomingPacketLengths:histogram:numbins 61
scalar FramePreemptionShowcase.host1.ethernet.fcsInserter incomingPacketLengths:histogram:rangemin 0
scalar FramePreemptionShowcase.host1.ethernet.fcsInserter incomingPacketLengths:histogram:rangemax 12200
scalar FramePreemptionShowcase.host1.ethernet.fcsInserter incomingPacketLengths:histogram:underflows 0
scalar FramePreemptionShowcase.host1.ethernet.fcsInserter incomingPacketLengths:histogram:overflows 0
scalar FramePreemptionShowcase.host1.ethernet.fcsInserter flowIncomingPacketLengths:histogram:count 0
scalar FramePreemptionShowcase.host1.ethernet.fcsInserter flowIncomingPacketLengths:histogram:sumweights 0
scalar FramePreemptionShowcase.host1.ethernet.fcsInserter flowIncomingPacketLengths:histogram:mean -nan
scalar FramePreemptionShowcase.host1.ethernet.fcsInserter flowIncomingPacketLengths:histogram:stddev nan
scalar FramePreemptionShowcase.host1.ethernet.fcsInserter flowIncomingPacketLengths:histogram:min nan
scalar FramePreemptionShowcase.host1.ethernet.fcsInserter flowIncomingPacketLengths:histogram:max nan
scalar FramePreemptionShowcase.host1.ethernet.fcsInserter flowIncomingPacketLengths:histogram:numbins 1
scalar FramePreemptionShowcase.host1.ethernet.fcsInserter flowIncomingPacketLengths:histogram:rangemin 0
scalar FramePreemptionShowcase.host1.ethernet.fcsInserter flowIncomingPacketLengths:histogram:rangemax 1
scalar FramePreemptionShowcase.host1.ethernet.fcsInserter flowIncomingPacketLengths:histogram:underflows 0
scalar FramePreemptionShowcase.host1.ethernet.fcsInserter flowIncomingPacketLengths:histogram:overflows 0
scalar FramePreemptionShowcase.host1.ethernet.macHeaderChecker outgoingPacketLengths:histogram:count 0
scalar FramePreemptionShowcase.host1.ethernet.macHeaderChecker outgoingPacketLengths:histogram:sumweights 0
scalar FramePreemptionShowcase.host1.ethernet.macHeaderChecker outgoingPacketLengths:histogram:mean -nan
scalar FramePreemptionShowcase.host1.ethernet.macHeaderChecker outgoingPacketLengths:histogram:stddev nan
scalar FramePreemptionShowcase.host1.ethernet.macHeaderChecker outgoingPacketLengths:histogram:min nan
scalar FramePreemptionShowcase.host1.ethernet.macHeaderChecker outgoingPacketLengths:histogram:max nan
scalar FramePreemptionShowcase.host1.ethernet.macHeaderChecker outgoingPacketLengths:histogram:numbins 1
scalar FramePreemptionShowcase.host1.ethernet.macHeaderChecker outgoingPacketLengths:histogram:rangemin 0
scalar FramePreemptionShowcase.host1.ethernet.macHeaderChecker outgoingPacketLengths:histogram:rangemax 1
scalar FramePreemptionShowcase.host1.ethernet.macHeaderChecker outgoingPacketLengths:histogram:underflows 0
scalar FramePreemptionShowcase.host1.ethernet.macHeaderChecker outgoingPacketLengths:histogram:overflows 0
scalar FramePreemptionShowcase.host1.ethernet.macHeaderChecker flowOutgoingPacketLengths:histogram:count 0
scalar FramePreemptionShowcase.host1.ethernet.macHeaderChecker flowOutgoingPacketLengths:histogram:sumweights 0
scalar FramePreemptionShowcase.host1.ethernet.macHeaderChecker flowOutgoingPacketLengths:histogram:mean -nan
scalar FramePreemptionShowcase.host1.ethernet.macHeaderChecker flowOutgoingPacketLengths:histogram:stddev nan
scalar FramePreemptionShowcase.host1.ethernet.macHeaderChecker flowOutgoingPacketLengths:histogram:min nan
scalar FramePreemptionShowcase.host1.ethernet.macHeaderChecker flowOutgoingPacketLengths:histogram:max nan
scalar FramePreemptionShowcase.host1.ethernet.macHeaderChecker flowOutgoingPacketLengths:histogram:numbins 1
scalar FramePreemptionShowcase.host1.ethernet.macHeaderChecker flowOutgoingPacketLengths:histogram:rangemin 0
scalar FramePreemptionShowcase.host1.ethernet.macHeaderChecker flowOutgoingPacketLengths:histogram:rangemax 1
scalar FramePreemptionShowcase.host1.ethernet.macHeaderChecker flowOutgoingPacketLengths:histogram:underflows 0
scalar FramePreemptionShowcase.host1.ethernet.macHeaderChecker flowOutgoingPacketLengths:histogram:overflows 0
scalar FramePreemptionShowcase.host1.ethernet.macHeaderChecker incomingPacketLengths:histogram:count 0
scalar FramePreemptionShowcase.host1.ethernet.macHeaderChecker incomingPacketLengths:histogram:sumweights 0
scalar FramePreemptionShowcase.host1.ethernet.macHeaderChecker incomingPacketLengths:histogram:mean -nan
scalar FramePreemptionShowcase.host1.ethernet.macHeaderChecker incomingPacketLengths:histogram:stddev nan
scalar FramePreemptionShowcase.host1.ethernet.macHeaderChecker incomingPacketLengths:histogram:min nan
scalar FramePreemptionShowcase.host1.ethernet.macHeaderChecker incomingPacketLengths:histogram:max nan
scalar FramePreemptionShowcase.host1.ethernet.macHeaderChecker incomingPacketLengths:histogram:numbins 1
scalar FramePreemptionShowcase.host1.ethernet.macHeaderChecker incomingPacketLengths:histogram:rangemin 0
scalar FramePreemptionShowcase.host1.ethernet.macHeaderChecker incomingPacketLengths:histogram:rangemax 1
scalar FramePreemptionShowcase.host1.ethernet.macHeaderChecker incomingPacketLengths:histogram:underflows 0
scalar FramePreemptionShowcase.host1.ethernet.macHeaderChecker incomingPacketLengths:histogram:overflows 0
scalar FramePreemptionShowcase.host1.ethernet.macHeaderChecker flowIncomingPacketLengths:histogram:count 0
scalar FramePreemptionShowcase.host1.ethernet.macHeaderChecker flowIncomingPacketLengths:histogram:sumweights 0
scalar FramePreemptionShowcase.host1.ethernet.macHeaderChecker flowIncomingPacketLengths:histogram:mean -nan
scalar FramePreemptionShowcase.host1.ethernet.macHeaderChecker flowIncomingPacketLengths:histogram:stddev nan
scalar FramePreemptionShowcase.host1.ethernet.macHeaderChecker flowIncomingPacketLengths:histogram:min nan
scalar FramePreemptionShowcase.host1.ethernet.macHeaderChecker flowIncomingPacketLengths:histogram:max nan
scalar FramePreemptionShowcase.host1.ethernet.macHeaderChecker flowIncomingPacketLengths:histogram:numbins 1
scalar FramePreemptionShowcase.host1.ethernet.macHeaderChecker flowIncomingPacketLengths:histogram:rangemin 0
scalar FramePreemptionShowcase.host1.ethernet.macHeaderChecker flowIncomingPacketLengths:histogram:rangemax 1
scalar FramePreemptionShowcase.host1.ethernet.macHeaderChecker flowIncomingPacketLengths:histogram:underflows 0
scalar FramePreemptionShowcase.host1.ethernet.macHeaderChecker flowIncomingPacketLengths:histogram:overflows 0
scalar FramePreemptionShowcase.host1.ethernet.macHeaderChecker droppedPacketLengths:histogram:count 0
scalar FramePreemptionShowcase.host1.ethernet.macHeaderChecker droppedPacketLengths:histogram:sumweights 0
scalar FramePreemptionShowcase.host1.ethernet.macHeaderChecker droppedPacketLengths:histogram:mean -nan
scalar FramePreemptionShowcase.host1.ethernet.macHeaderChecker droppedPacketLengths:histogram:stddev nan
scalar FramePreemptionShowcase.host1.ethernet.macHeaderChecker droppedPacketLengths:histogram:min nan
scalar FramePreemptionShowcase.host1.ethernet.macHeaderChecker droppedPacketLengths:histogram:max nan
scalar FramePreemptionShowcase.host1.ethernet.macHeaderChecker droppedPacketLengths:histogram:numbins 1
scalar FramePreemptionShowcase.host1.ethernet.macHeaderChecker droppedPacketLengths:histogram:rangemin 0
scalar FramePreemptionShowcase.host1.ethernet.macHeaderChecker droppedPacketLengths:histogram:rangemax 1
scalar FramePreemptionShowcase.host1.ethernet.macHeaderChecker droppedPacketLengths:histogram:underflows 0
scalar FramePreemptionShowcase.host1.ethernet.macHeaderChecker droppedPacketLengths:histogram:overflows 0
scalar FramePreemptionShowcase.host1.ethernet.macHeaderChecker flowDroppedPacketLengths:histogram:count 0
scalar FramePreemptionShowcase.host1.ethernet.macHeaderChecker flowDroppedPacketLengths:histogram:sumweights 0
scalar FramePreemptionShowcase.host1.ethernet.macHeaderChecker flowDroppedPacketLengths:histogram:mean -nan
scalar FramePreemptionShowcase.host1.ethernet.macHeaderChecker flowDroppedPacketLengths:histogram:stddev nan
scalar FramePreemptionShowcase.host1.ethernet.macHeaderChecker flowDroppedPacketLengths:histogram:min nan
scalar FramePreemptionShowcase.host1.ethernet.macHeaderChecker flowDroppedPacketLengths:histogram:max nan
scalar FramePreemptionShowcase.host1.ethernet.macHeaderChecker flowDroppedPacketLengths:histogram:numbins 1
scalar FramePreemptionShowcase.host1.ethernet.macHeaderChecker flowDroppedPacketLengths:histogram:rangemin 0
scalar FramePreemptionShowcase.host1.ethernet.macHeaderChecker flowDroppedPacketLengths:histogram:rangemax 1
scalar FramePreemptionShowcase.host1.ethernet.macHeaderChecker flowDroppedPacketLengths:histogram:underflows 0
scalar FramePreemptionShowcase.host1.ethernet.macHeaderChecker flowDroppedPacketLengths:histogram:overflows 0
scalar FramePreemptionShowcase.host1.ethernet.fcsChecker outgoingPacketLengths:histogram:count 0
scalar FramePreemptionShowcase.host1.ethernet.fcsChecker outgoingPacketLengths:histogram:sumweights 0
scalar FramePreemptionShowcase.host1.ethernet.fcsChecker outgoingPacketLengths:histogram:mean -nan
scalar FramePreemptionShowcase.host1.ethernet.fcsChecker outgoingPacketLengths:histogram:stddev nan
scalar FramePreemptionShowcase.host1.ethernet.fcsChecker outgoingPacketLengths:histogram:min nan
scalar FramePreemptionShowcase.host1.ethernet.fcsChecker outgoingPacketLengths:histogram:max nan
scalar FramePreemptionShowcase.host1.ethernet.fcsChecker outgoingPacketLengths:histogram:numbins 1
scalar FramePreemptionShowcase.host1.ethernet.fcsChecker outgoingPacketLengths:histogram:rangemin 0
scalar FramePreemptionShowcase.host1.ethernet.fcsChecker outgoingPacketLengths:histogram:rangemax 1
scalar FramePreemptionShowcase.host1.ethernet.fcsChecker outgoingPacketLengths:histogram:underflows 0
scalar FramePreemptionShowcase.host1.ethernet.fcsChecker outgoingPacketLengths:histogram:overflows 0
scalar FramePreemptionShowcase.host1.ethernet.fcsChecker flowOutgoingPacketLengths:histogram:count 0
scalar FramePreemptionShowcase.host1.ethernet.fcsChecker flowOutgoingPacketLengths:histogram:sumweights 0
scalar FramePreemptionShowcase.host1.ethernet.fcsChecker flowOutgoingPacketLengths:histogram:mean -nan
scalar FramePreemptionShowcase.host1.ethernet.fcsChecker flowOutgoingPacketLengths:histogram:stddev nan
scalar FramePreemptionShowcase.host1.ethernet.fcsChecker flowOutgoingPacketLengths:histogram:min nan
scalar FramePreemptionShowcase.host1.ethernet.fcsChecker flowOutgoingPacketLengths:histogram:max nan
scalar FramePreemptionShowcase.host1.ethernet.fcsChecker flowOutgoingPacketLengths:histogram:numbins 1
scalar FramePreemptionShowcase.host1.ethernet.fcsChecker flowOutgoingPacketLengths:histogram:rangemin 0
scalar FramePreemptionShowcase.host1.ethernet.fcsChecker flowOutgoingPacketLengths:histogram:rangemax 1
scalar FramePreemptionShowcase.host1.ethernet.fcsChecker flowOutgoingPacketLengths:histogram:underflows 0
scalar FramePreemptionShowcase.host1.ethernet.fcsChecker flowOutgoingPacketLengths:histogram:overflows 0
scalar FramePreemptionShowcase.host1.ethernet.fcsChecker incomingPacketLengths:histogram:count 0
scalar FramePreemptionShowcase.host1.ethernet.fcsChecker incomingPacketLengths:histogram:sumweights 0
scalar FramePreemptionShowcase.host1.ethernet.fcsChecker incomingPacketLengths:histogram:mean -nan
scalar FramePreemptionShowcase.host1.ethernet.fcsChecker incomingPacketLengths:histogram:stddev nan
scalar FramePreemptionShowcase.host1.ethernet.fcsChecker incomingPacketLengths:histogram:min nan
scalar FramePreemptionShowcase.host1.ethernet.fcsChecker incomingPacketLengths:histogram:max nan
scalar FramePreemptionShowcase.host1.ethernet.fcsChecker incomingPacketLengths:histogram:numbins 1
scalar FramePreemptionShowcase.host1.ethernet.fcsChecker incomingPacketLengths:histogram:rangemin 0
scalar FramePreemptionShowcase.host1.ethernet.fcsChecker incomingPacketLengths:histogram:rangemax 1
scalar FramePreemptionShowcase.host1.ethernet.fcsChecker incomingPacketLengths:histogram:underflows 0
scalar FramePreemptionShowcase.host1.ethernet.fcsChecker incomingPacketLengths:histogram:overflows 0
scalar FramePreemptionShowcase.host1.ethernet.fcsChecker flowIncomingPacketLengths:histogram:count 0
scalar FramePreemptionShowcase.host1.ethernet.fcsChecker flowIncomingPacketLengths:histogram:sumweights 0
scalar FramePreemptionShowcase.host1.ethernet.fcsChecker flowIncomingPacketLengths:histogram:mean -nan
scalar FramePreemptionShowcase.host1.ethernet.fcsChecker flowIncomingPacketLengths:histogram:stddev nan
scalar FramePreemptionShowcase.host1.ethernet.fcsChecker flowIncomingPacketLengths:histogram:min nan
scalar FramePreemptionShowcase.host1.ethernet.fcsChecker flowIncomingPacketLengths:histogram:max nan
scalar FramePreemptionShowcase.host1.ethernet.fcsChecker flowIncomingPacketLengths:histogram:numbins 1
scalar FramePreemptionShowcase.host1.ethernet.fcsChecker flowIncomingPacketLengths:histogram:rangemin 0
scalar FramePreemptionShowcase.host1.ethernet.fcsChecker flowIncomingPacketLengths:histogram:rangemax 1
scalar FramePreemptionShowcase.host1.ethernet.fcsChecker flowIncomingPacketLengths:histogram:underflows 0
scalar FramePreemptionShowcase.host1.ethernet.fcsChecker flowIncomingPacketLengths:histogram:overflows 0
scalar FramePreemptionShowcase.host1.ethernet.fcsChecker droppedPacketLengths:histogram:count 0
scalar FramePreemptionShowcase.host1.ethernet.fcsChecker droppedPacketLengths:histogram:sumweights 0
scalar FramePreemptionShowcase.host1.ethernet.fcsChecker droppedPacketLengths:histogram:mean -nan
scalar FramePreemptionShowcase.host1.ethernet.fcsChecker droppedPacketLengths:histogram:stddev nan
scalar FramePreemptionShowcase.host1.ethernet.fcsChecker droppedPacketLengths:histogram:min nan
scalar FramePreemptionShowcase.host1.ethernet.fcsChecker droppedPacketLengths:histogram:max nan
scalar FramePreemptionShowcase.host1.ethernet.fcsChecker droppedPacketLengths:histogram:numbins 1
scalar FramePreemptionShowcase.host1.ethernet.fcsChecker droppedPacketLengths:histogram:rangemin 0
scalar FramePreemptionShowcase.host1.ethernet.fcsChecker droppedPacketLengths:histogram:rangemax 1
scalar FramePreemptionShowcase.host1.ethernet.fcsChecker droppedPacketLengths:histogram:underflows 0
scalar FramePreemptionShowcase.host1.ethernet.fcsChecker droppedPacketLengths:histogram:overflows 0
scalar FramePreemptionShowcase.host1.ethernet.fcsChecker flowDroppedPacketLengths:histogram:count 0
scalar FramePreemptionShowcase.host1.ethernet.fcsChecker flowDroppedPacketLengths:histogram:sumweights 0
scalar FramePreemptionShowcase.host1.ethernet.fcsChecker flowDroppedPacketLengths:histogram:mean -nan
scalar FramePreemptionShowcase.host1.ethernet.fcsChecker flowDroppedPacketLengths:histogram:stddev nan
scalar FramePreemptionShowcase.host1.ethernet.fcsChecker flowDroppedPacketLengths:histogram:min nan
scalar FramePreemptionShowcase.host1.ethernet.fcsChecker flowDroppedPacketLengths:histogram:max nan
scalar FramePreemptionShowcase.host1.ethernet.fcsChecker flowDroppedPacketLengths:histogram:numbins 1
scalar FramePreemptionShowcase.host1.ethernet.fcsChecker flowDroppedPacketLengths:histogram:rangemin 0
scalar FramePreemptionShowcase.host1.ethernet.fcsChecker flowDroppedPacketLengths:histogram:rangemax 1
scalar FramePreemptionShowcase.host1.ethernet.fcsChecker flowDroppedPacketLengths:histogram:underflows 0
scalar FramePreemptionShowcase.host1.ethernet.fcsChecker flowDroppedPacketLengths:histogram:overflows 0
scalar FramePreemptionShowcase.host1.eth[0].macLayer.outboundClassifier packetLengths:histogram:count 9864
scalar FramePreemptionShowcase.host1.eth[0].macLayer.outboundClassifier packetLengths:histogram:sumweights 9864
scalar FramePreemptionShowcase.host1.eth[0].macLayer.outboundClassifier packetLengths:histogram:mean 9878.6569343065694
scalar FramePreemptionShowcase.host1.eth[0].macLayer.outboundClassifier packetLengths:histogram:stddev 874.08200961474881
scalar FramePreemptionShowcase.host1.eth[0].macLayer.outboundClassifier packetLengths:histogram:min 1328
scalar FramePreemptionShowcase.host1.eth[0].macLayer.outboundClassifier packetLengths:histogram:max 9968
scalar FramePreemptionShowcase.host1.eth[0].macLayer.outboundClassifier packetLengths:histogram:numbins 61
scalar FramePreemptionShowcase.host1.eth[0].macLayer.outboundClassifier packetLengths:histogram:rangemin 0
scalar FramePreemptionShowcase.host1.eth[0].macLayer.outboundClassifier packetLengths:histogram:rangemax 12200
scalar FramePreemptionShowcase.host1.eth[0].macLayer.outboundClassifier packetLengths:histogram:underflows 0
scalar FramePreemptionShowcase.host1.eth[0].macLayer.outboundClassifier packetLengths:histogram:overflows 0
scalar FramePreemptionShowcase.host1.eth[0].macLayer.expressMacLayer.queue queueingTime:histogram:count 102
scalar FramePreemptionShowcase.host1.eth[0].macLayer.expressMacLayer.queue queueingTime:histogram:sumweights 102
scalar FramePreemptionShowcase.host1.eth[0].macLayer.expressMacLayer.queue queueingTime:histogram:mean 2.0177776960784314e-06
scalar FramePreemptionShowcase.host1.eth[0].macLayer.expressMacLayer.queue queueingTime:histogram:stddev 7.8975157904190372e-07
scalar FramePreemptionShowcase.host1.eth[0].macLayer.expressMacLayer.queue queueingTime:histogram:min 0
scalar FramePreemptionShowcase.host1.eth[0].macLayer.expressMacLayer.queue queueingTime:histogram:max 6.4390569999999998e-06
scalar FramePreemptionShowcase.host1.eth[0].macLayer.expressMacLayer.queue queueingTime:histogram:numbins 81
scalar FramePreemptionShowcase.host1.eth[0].macLayer.expressMacLayer.queue queueingTime:histogram:rangemin 0
scalar FramePreemptionShowcase.host1.eth[0].macLayer.expressMacLayer.queue queueingTime:histogram:rangemax 8.1000000000000021e-06
[...]
scalar FramePreemptionShowcase.host2.udp droppedPkWrongPort:vector(count):sum 0
scalar FramePreemptionShowcase.host2.udp droppedPkWrongPort:vector(count):sumweights 1
scalar FramePreemptionShowcase.host2.udp droppedPkWrongPort:vector(count):mean 0
scalar FramePreemptionShowcase.host2.udp droppedPkWrongPort:vector(count):stddev nan
scalar FramePreemptionShowcase.host2.udp droppedPkWrongPort:vector(count):min 0
scalar FramePreemptionShowcase.host2.udp droppedPkWrongPort:vector(count):max 0
scalar FramePreemptionShowcase.host2.udp droppedPkWrongPort:vector(count):starttime 0
scalar FramePreemptionShowcase.host2.udp droppedPkWrongPort:vector(count):endtime 0
scalar FramePreemptionShowcase.host2.udp droppedPkBadChecksum:vector(count):count 1
scalar FramePreemptionShowcase.host2.udp droppedPkBadChecksum:vector(count):sum 0
scalar FramePreemptionShowcase.host2.udp droppedPkBadChecksum:vector(count):sumweights 1
scalar FramePreemptionShowcase.host2.udp droppedPkBadChecksum:vector(count):mean 0
scalar FramePreemptionShowcase.host2.udp droppedPkBadChecksum:vector(count):stddev nan
scalar FramePreemptionShowcase.host2.udp droppedPkBadChecksum:vector(count):min 0
scalar FramePreemptionShowcase.host2.udp droppedPkBadChecksum:vector(count):max 0
scalar FramePreemptionShowcase.host2.udp droppedPkBadChecksum:vector(count):starttime 0
scalar FramePreemptionShowcase.host2.udp droppedPkBadChecksum:vector(count):endtime 0
scalar FramePreemptionShowcase.host2.app[0].sink droppedPacketLengths:vector:count 9565
scalar FramePreemptionShowcase.host2.app[0].sink droppedPacketLengths:vector:sum 91824000
scalar FramePreemptionShowcase.host2.app[0].sink droppedPacketLengths:vector:sumweights 9565
scalar FramePreemptionShowcase.host2.app[0].sink droppedPacketLengths:vector:mean 9600
scalar FramePreemptionShowcase.host2.app[0].sink droppedPacketLengths:vector:stddev 0
scalar FramePreemptionShowcase.host2.app[0].sink droppedPacketLengths:vector:min 9600
scalar FramePreemptionShowcase.host2.app[0].sink droppedPacketLengths:vector:max 9600
scalar FramePreemptionShowcase.host2.app[0].sink droppedPacketLengths:vector:starttime 0.00011525000000000002
scalar FramePreemptionShowcase.host2.app[0].sink droppedPacketLengths:vector:endtime 0.99990665907800014
scalar FramePreemptionShowcase.host2.app[0].sink droppedDataRate:vector:count 96
scalar FramePreemptionShowcase.host2.app[0].sink droppedDataRate:vector:sum 8820725050.0495281
scalar FramePreemptionShowcase.host2.app[0].sink droppedDataRate:vector:sumweights 96
scalar FramePreemptionShowcase.host2.app[0].sink droppedDataRate:vector:mean 91882552.60468258
scalar FramePreemptionShowcase.host2.app[0].sink droppedDataRate:vector:stddev 2291051.6254721382
scalar FramePreemptionShowcase.host2.app[0].sink droppedDataRate:vector:min 86151265.833969653
scalar FramePreemptionShowcase.host2.app[0].sink droppedDataRate:vector:max 94786729.8578199
scalar FramePreemptionShowcase.host2.app[0].sink droppedDataRate:vector:starttime 0.010576500338000002
scalar FramePreemptionShowcase.host2.app[0].sink droppedDataRate:vector:endtime 1
scalar FramePreemptionShowcase.host2.app[0].sink packetLengths:vector:count 9565
scalar FramePreemptionShowcase.host2.app[0].sink packetLengths:vector:sum 91824000
scalar FramePreemptionShowcase.host2.app[0].sink packetLengths:vector:sumweights 9565
scalar FramePreemptionShowcase.host2.app[0].sink packetLengths:vector:mean 9600
scalar FramePreemptionShowcase.host2.app[0].sink packetLengths:vector:stddev 0
scalar FramePreemptionShowcase.host2.app[0].sink packetLengths:vector:min 9600
scalar FramePreemptionShowcase.host2.app[0].sink packetLengths:vector:max 9600
scalar FramePreemptionShowcase.host2.app[0].sink packetLengths:vector:starttime 0.00011525000000000002
scalar FramePreemptionShowcase.host2.app[0].sink packetLengths:vector:endtime 0.99990665907800014
scalar FramePreemptionShowcase.host2.app[0].sink dataRate:vector:count 96
scalar FramePreemptionShowcase.host2.app[0].sink dataRate:vector:sum 8820725050.0495281
scalar FramePreemptionShowcase.host2.app[0].sink dataRate:vector:sumweights 96
scalar FramePreemptionShowcase.host2.app[0].sink dataRate:vector:mean 91882552.60468258
scalar FramePreemptionShowcase.host2.app[0].sink dataRate:vector:stddev 2291051.6254721382
scalar FramePreemptionShowcase.host2.app[0].sink dataRate:vector:min 86151265.833969653
scalar FramePreemptionShowcase.host2.app[0].sink dataRate:vector:max 94786729.8578199
scalar FramePreemptionShowcase.host2.app[0].sink dataRate:vector:starttime 0.010576500338000002
scalar FramePreemptionShowcase.host2.app[0].sink dataRate:vector:endtime 1
scalar FramePreemptionShowcase.host2.app[0].sink meanBitLifeTimePerPacket:vector:count 9565
scalar FramePreemptionShowcase.host2.app[0].sink meanBitLifeTimePerPacket:vector:sum 2.5497220065659865
scalar FramePreemptionShowcase.host2.app[0].sink meanBitLifeTimePerPacket:vector:sumweights 9565
scalar FramePreemptionShowcase.host2.app[0].sink meanBitLifeTimePerPacket:vector:mean 0.00026656790450245546
scalar FramePreemptionShowcase.host2.app[0].sink meanBitLifeTimePerPacket:vector:stddev 0.0001137884638031596
scalar FramePreemptionShowcase.host2.app[0].sink meanBitLifeTimePerPacket:vector:min 0.00010037
scalar FramePreemptionShowcase.host2.app[0].sink meanBitLifeTimePerPacket:vector:max 0.00051425416400000001
scalar FramePreemptionShowcase.host2.app[0].sink meanBitLifeTimePerPacket:vector:starttime 0.00011525000000000002
scalar FramePreemptionShowcase.host2.app[0].sink meanBitLifeTimePerPacket:vector:endtime 0.99990665907800014
scalar FramePreemptionShowcase.host2.app[0].sink packetLifeTime:vector:count 9565
scalar FramePreemptionShowcase.host2.app[0].sink packetLifeTime:vector:sum nan
scalar FramePreemptionShowcase.host2.app[0].sink packetLifeTime:vector:sumweights 9565
scalar FramePreemptionShowcase.host2.app[0].sink packetLifeTime:vector:mean nan
scalar FramePreemptionShowcase.host2.app[0].sink packetLifeTime:vector:stddev nan
scalar FramePreemptionShowcase.host2.app[0].sink packetLifeTime:vector:min 0.00010037
scalar FramePreemptionShowcase.host2.app[0].sink packetLifeTime:vector:max 0.00049161755100000004
scalar FramePreemptionShowcase.host2.app[0].sink packetLifeTime:vector:starttime 0.00011525000000000002
scalar FramePreemptionShowcase.host2.app[0].sink packetLifeTime:vector:endtime 0.99990665907800014
scalar FramePreemptionShowcase.host2.app[0].sink packetJitter:vector:count 9565
scalar FramePreemptionShowcase.host2.app[0].sink packetJitter:vector:sum 0.0002461887699999999
scalar FramePreemptionShowcase.host2.app[0].sink packetJitter:vector:sumweights 9565
scalar FramePreemptionShowcase.host2.app[0].sink packetJitter:vector:mean 2.5738501829587026e-08
scalar FramePreemptionShowcase.host2.app[0].sink packetJitter:vector:stddev 4.4687489034128718e-05
scalar FramePreemptionShowcase.host2.app[0].sink packetJitter:vector:min -0.00018801118999999997
scalar FramePreemptionShowcase.host2.app[0].sink packetJitter:vector:max 0.00011025
scalar FramePreemptionShowcase.host2.app[0].sink packetJitter:vector:starttime 0.00011525000000000002
scalar FramePreemptionShowcase.host2.app[0].sink packetJitter:vector:endtime 0.99990665907800014
scalar FramePreemptionShowcase.host2.app[0].sink packetDelayDifferenceToMean:vector:count 9565
scalar FramePreemptionShowcase.host2.app[0].sink packetDelayDifferenceToMean:vector:sum -0.076843466376573383
scalar FramePreemptionShowcase.host2.app[0].sink packetDelayDifferenceToMean:vector:sumweights 9565
scalar FramePreemptionShowcase.host2.app[0].sink packetDelayDifferenceToMean:vector:mean -8.0338177079533077e-06
scalar FramePreemptionShowcase.host2.app[0].sink packetDelayDifferenceToMean:vector:stddev 0.00011346821224902378
scalar FramePreemptionShowcase.host2.app[0].sink packetDelayDifferenceToMean:vector:min -0.00029250621018518533
scalar FramePreemptionShowcase.host2.app[0].sink packetDelayDifferenceToMean:vector:max 0.00017056619260816312
scalar FramePreemptionShowcase.host2.app[0].sink packetDelayDifferenceToMean:vector:starttime 0.00011525000000000002
scalar FramePreemptionShowcase.host2.app[0].sink packetDelayDifferenceToMean:vector:endtime 0.99990665907800014
scalar FramePreemptionShowcase.host2.app[0].sink packetDelayVariation:vector:count 9565
scalar FramePreemptionShowcase.host2.app[0].sink packetDelayVariation:vector:sum 1.0799104478033015
scalar FramePreemptionShowcase.host2.app[0].sink packetDelayVariation:vector:sumweights 9565
scalar FramePreemptionShowcase.host2.app[0].sink packetDelayVariation:vector:mean 0.00011290229459522232
scalar FramePreemptionShowcase.host2.app[0].sink packetDelayVariation:vector:stddev 5.8738495261071944e-06
scalar FramePreemptionShowcase.host2.app[0].sink packetDelayVariation:vector:min 0
scalar FramePreemptionShowcase.host2.app[0].sink packetDelayVariation:vector:max 0.00011835041068979375
scalar FramePreemptionShowcase.host2.app[0].sink packetDelayVariation:vector:starttime 0.00011525000000000002
scalar FramePreemptionShowcase.host2.app[0].sink packetDelayVariation:vector:endtime 0.99990665907800014
scalar FramePreemptionShowcase.host2.app[0].io packetSent:vector(packetBytes):count 0
scalar FramePreemptionShowcase.host2.app[0].io packetSent:vector(packetBytes):sum 0
scalar FramePreemptionShowcase.host2.app[0].io packetSent:vector(packetBytes):sumweights 0
scalar FramePreemptionShowcase.host2.app[0].io packetSent:vector(packetBytes):mean -nan
scalar FramePreemptionShowcase.host2.app[0].io packetSent:vector(packetBytes):stddev nan
scalar FramePreemptionShowcase.host2.app[0].io packetSent:vector(packetBytes):min inf
scalar FramePreemptionShowcase.host2.app[0].io packetSent:vector(packetBytes):max -inf
scalar FramePreemptionShowcase.host2.app[0].io packetSent:vector(packetBytes):starttime nan
scalar FramePreemptionShowcase.host2.app[0].io packetSent:vector(packetBytes):endtime nan
scalar FramePreemptionShowcase.host2.app[0].io packetReceived:vector(packetBytes):count 9565
scalar FramePreemptionShowcase.host2.app[0].io packetReceived:vector(packetBytes):sum 11478000
scalar FramePreemptionShowcase.host2.app[0].io packetReceived:vector(packetBytes):sumweights 9565
scalar FramePreemptionShowcase.host2.app[0].io packetReceived:vector(packetBytes):mean 1200
scalar FramePreemptionShowcase.host2.app[0].io packetReceived:vector(packetBytes):stddev 0
scalar FramePreemptionShowcase.host2.app[0].io packetReceived:vector(packetBytes):min 1200
scalar FramePreemptionShowcase.host2.app[0].io packetReceived:vector(packetBytes):max 1200
scalar FramePreemptionShowcase.host2.app[0].io packetReceived:vector(packetBytes):starttime 0.00011525000000000002
scalar FramePreemptionShowcase.host2.app[0].io packetReceived:vector(packetBytes):endtime 0.99990665907800014
scalar FramePreemptionShowcase.host2.app[1].sink droppedPacketLengths:vector:count 102
scalar FramePreemptionShowcase.host2.app[1].sink droppedPacketLengths:vector:sum 97920
scalar FramePreemptionShowcase.host2.app[1].sink droppedPacketLengths:vector:sumweights 102
scalar FramePreemptionShowcase.host2.app[1].sink droppedPacketLengths:vector:mean 960
scalar FramePreemptionShowcase.host2.app[1].sink droppedPacketLengths:vector:stddev 0
scalar FramePreemptionShowcase.host2.app[1].sink droppedPacketLengths:vector:min 960
scalar FramePreemptionShowcase.host2.app[1].sink droppedPacketLengths:vector:max 960
scalar FramePreemptionShowcase.host2.app[1].sink droppedPacketLengths:vector:starttime 1.3970000000000002e-05
scalar FramePreemptionShowcase.host2.app[1].sink droppedPacketLengths:vector:endtime 0.99628938371400022
scalar FramePreemptionShowcase.host2.app[1].sink droppedDataRate:vector:count 10
scalar FramePreemptionShowcase.host2.app[1].sink droppedDataRate:vector:sum 979200
scalar FramePreemptionShowcase.host2.app[1].sink droppedDataRate:vector:sumweights 10
scalar FramePreemptionShowcase.host2.app[1].sink droppedDataRate:vector:mean 97920
scalar FramePreemptionShowcase.host2.app[1].sink droppedDataRate:vector:stddev 18548.962235122483
scalar FramePreemptionShowcase.host2.app[1].sink droppedDataRate:vector:min 67200
scalar FramePreemptionShowcase.host2.app[1].sink droppedDataRate:vector:max 134400
scalar FramePreemptionShowcase.host2.app[1].sink droppedDataRate:vector:starttime 0.10000000000000001
scalar FramePreemptionShowcase.host2.app[1].sink droppedDataRate:vector:endtime 1
scalar FramePreemptionShowcase.host2.app[1].sink packetLengths:vector:count 102
scalar FramePreemptionShowcase.host2.app[1].sink packetLengths:vector:sum 97920
scalar FramePreemptionShowcase.host2.app[1].sink packetLengths:vector:sumweights 102
scalar FramePreemptionShowcase.host2.app[1].sink packetLengths:vector:mean 960
scalar FramePreemptionShowcase.host2.app[1].sink packetLengths:vector:stddev 0
scalar FramePreemptionShowcase.host2.app[1].sink packetLengths:vector:min 960
scalar FramePreemptionShowcase.host2.app[1].sink packetLengths:vector:max 960
scalar FramePreemptionShowcase.host2.app[1].sink packetLengths:vector:starttime 1.3970000000000002e-05
scalar FramePreemptionShowcase.host2.app[1].sink packetLengths:vector:endtime 0.99628938371400022
scalar FramePreemptionShowcase.host2.app[1].sink dataRate:vector:count 10
scalar FramePreemptionShowcase.host2.app[1].sink dataRate:vector:sum 979200
scalar FramePreemptionShowcase.host2.app[1].sink dataRate:vector:sumweights 10
scalar FramePreemptionShowcase.host2.app[1].sink dataRate:vector:mean 97920
scalar FramePreemptionShowcase.host2.app[1].sink dataRate:vector:stddev 18548.962235122483
scalar FramePreemptionShowcase.host2.app[1].sink dataRate:vector:min 67200
scalar FramePreemptionShowcase.host2.app[1].sink dataRate:vector:max 134400
scalar FramePreemptionShowcase.host2.app[1].sink dataRate:vector:starttime 0.10000000000000001
scalar FramePreemptionShowcase.host2.app[1].sink dataRate:vector:endtime 1
scalar FramePreemptionShowcase.host2.app[1].sink meanBitLifeTimePerPacket:vector:count 102
scalar FramePreemptionShowcase.host2.app[1].sink meanBitLifeTimePerPacket:vector:sum 0.0016307533250000004
scalar FramePreemptionShowcase.host2.app[1].sink meanBitLifeTimePerPacket:vector:sumweights 102
scalar FramePreemptionShowcase.host2.app[1].sink meanBitLifeTimePerPacket:vector:mean 1.5987777696078435e-05
scalar FramePreemptionShowcase.host2.app[1].sink meanBitLifeTimePerPacket:vector:stddev 7.8975157904173951e-07
scalar FramePreemptionShowcase.host2.app[1].sink meanBitLifeTimePerPacket:vector:min 1.397e-05
scalar FramePreemptionShowcase.host2.app[1].sink meanBitLifeTimePerPacket:vector:max 2.0409057e-05
scalar FramePreemptionShowcase.host2.app[1].sink meanBitLifeTimePerPacket:vector:starttime 1.3970000000000002e-05
scalar FramePreemptionShowcase.host2.app[1].sink meanBitLifeTimePerPacket:vector:endtime 0.99628938371400022
scalar FramePreemptionShowcase.host2.app[1].sink packetLifeTime:vector:count 102
scalar FramePreemptionShowcase.host2.app[1].sink packetLifeTime:vector:sum 0.0016307533250000004
scalar FramePreemptionShowcase.host2.app[1].sink packetLifeTime:vector:sumweights 102
scalar FramePreemptionShowcase.host2.app[1].sink packetLifeTime:vector:mean 1.5987777696078435e-05
scalar FramePreemptionShowcase.host2.app[1].sink packetLifeTime:vector:stddev 7.8975157904173951e-07
scalar FramePreemptionShowcase.host2.app[1].sink packetLifeTime:vector:min 1.397e-05
scalar FramePreemptionShowcase.host2.app[1].sink packetLifeTime:vector:max 2.0409057e-05
scalar FramePreemptionShowcase.host2.app[1].sink packetLifeTime:vector:starttime 1.3970000000000002e-05
scalar FramePreemptionShowcase.host2.app[1].sink packetLifeTime:vector:endtime 0.99628938371400022
scalar FramePreemptionShowcase.host2.app[1].sink packetJitter:vector:count 102
scalar FramePreemptionShowcase.host2.app[1].sink packetJitter:vector:sum 1.5912552999999999e-05
scalar FramePreemptionShowcase.host2.app[1].sink packetJitter:vector:sumweights 102
scalar FramePreemptionShowcase.host2.app[1].sink packetJitter:vector:mean 1.5600542156862745e-07
scalar FramePreemptionShowcase.host2.app[1].sink packetJitter:vector:stddev 1.8466626069687286e-06
scalar FramePreemptionShowcase.host2.app[1].sink packetJitter:vector:min -4.4597629999999997e-06
scalar FramePreemptionShowcase.host2.app[1].sink packetJitter:vector:max 1.397e-05
scalar FramePreemptionShowcase.host2.app[1].sink packetJitter:vector:starttime 1.3970000000000002e-05
scalar FramePreemptionShowcase.host2.app[1].sink packetJitter:vector:endtime 0.99628938371400022
scalar FramePreemptionShowcase.host2.app[1].sink packetDelayDifferenceToMean:vector:count 102
scalar FramePreemptionShowcase.host2.app[1].sink packetDelayDifferenceToMean:vector:sum 2.4680219661405941e-06
scalar FramePreemptionShowcase.host2.app[1].sink packetDelayDifferenceToMean:vector:sumweights 102
scalar FramePreemptionShowcase.host2.app[1].sink packetDelayDifferenceToMean:vector:mean 2.41962937856921e-08
scalar FramePreemptionShowcase.host2.app[1].sink packetDelayDifferenceToMean:vector:stddev 7.6186962105057505e-07
scalar FramePreemptionShowcase.host2.app[1].sink packetDelayDifferenceToMean:vector:min -4.211269499999998e-06
scalar FramePreemptionShowcase.host2.app[1].sink packetDelayDifferenceToMean:vector:max 2.1092923863636384e-06
scalar FramePreemptionShowcase.host2.app[1].sink packetDelayDifferenceToMean:vector:starttime 1.3970000000000002e-05
scalar FramePreemptionShowcase.host2.app[1].sink packetDelayDifferenceToMean:vector:endtime 0.99628938371400022
scalar FramePreemptionShowcase.host2.app[1].sink packetDelayVariation:vector:count 102
scalar FramePreemptionShowcase.host2.app[1].sink packetDelayVariation:vector:sum 0.00010010407782969193
scalar FramePreemptionShowcase.host2.app[1].sink packetDelayVariation:vector:sumweights 102
scalar FramePreemptionShowcase.host2.app[1].sink packetDelayVariation:vector:mean 9.8141252774207779e-07
scalar FramePreemptionShowcase.host2.app[1].sink packetDelayVariation:vector:stddev 2.3052606025413761e-07
scalar FramePreemptionShowcase.host2.app[1].sink packetDelayVariation:vector:min 0
scalar FramePreemptionShowcase.host2.app[1].sink packetDelayVariation:vector:max 1.4969463049213631e-06
scalar FramePreemptionShowcase.host2.app[1].sink packetDelayVariation:vector:starttime 1.3970000000000002e-05
scalar FramePreemptionShowcase.host2.app[1].sink packetDelayVariation:vector:endtime 0.99628938371400022
scalar FramePreemptionShowcase.host2.app[1].io packetSent:vector(packetBytes):count 0
scalar FramePreemptionShowcase.host2.app[1].io packetSent:vector(packetBytes):sum 0
scalar FramePreemptionShowcase.host2.app[1].io packetSent:vector(packetBytes):sumweights 0
scalar FramePreemptionShowcase.host2.app[1].io packetSent:vector(packetBytes):mean -nan
scalar FramePreemptionShowcase.host2.app[1].io packetSent:vector(packetBytes):stddev nan
scalar FramePreemptionShowcase.host2.app[1].io packetSent:vector(packetBytes):min inf
scalar FramePreemptionShowcase.host2.app[1].io packetSent:vector(packetBytes):max -inf
scalar FramePreemptionShowcase.host2.app[1].io packetSent:vector(packetBytes):starttime nan
scalar FramePreemptionShowcase.host2.app[1].io packetSent:vector(packetBytes):endtime nan
scalar FramePreemptionShowcase.host2.app[1].io packetReceived:vector(packetBytes):count 102
scalar FramePreemptionShowcase.host2.app[1].io packetReceived:vector(packetBytes):sum 12240
scalar FramePreemptionShowcase.host2.app[1].io packetReceived:vector(packetBytes):sumweights 102
scalar FramePreemptionShowcase.host2.app[1].io packetReceived:vector(packetBytes):mean 120
scalar FramePreemptionShowcase.host2.app[1].io packetReceived:vector(packetBytes):stddev 0
scalar FramePreemptionShowcase.host2.app[1].io packetReceived:vector(packetBytes):min 120
scalar FramePreemptionShowcase.host2.app[1].io packetReceived:vector(packetBytes):max 120
scalar FramePreemptionShowcase.host2.app[1].io packetReceived:vector(packetBytes):starttime 1.3970000000000002e-05
scalar FramePreemptionShowcase.host2.app[1].io packetReceived:vector(packetBytes):endtime 0.99628938371400022

