version 3
run RealisticPriorityQueueing-0-20240115-11:31:56-15715
attr configname RealisticPriorityQueueing
attr datetime 20240115-11:31:56
attr datetimef 20240115-113156
attr experiment RealisticPriorityQueueing
attr inifile omnetpp.ini
attr iterationvars ""
attr iterationvarsd ""
attr iterationvarsf ""
attr measurement ""
attr network FramePreemptionShowcase
attr processid 15715
attr repetition 0
attr replication #0
attr resultdir results
attr runnumber 0
attr seedset 0
config **.param-recording false
config **.vector-recording false
config image-path /home/levy/workspace/inet/images
config output-scalar-file results/omnetpp.ini-RealisticPriorityQueueing-#0.sca
config sim-time-limit 1s
config extends "RealisticBase, PriorityQueueing"
config *.host1.app[0].source.packetLength 1200B
config *.host1.app[0].source.productionInterval truncnormal(100us,50us)
config *.host1.app[1].source.packetLength 120B
config *.host1.app[1].source.productionInterval truncnormal(10ms,5ms)
config description "High priority frames are transmitted before low priority frames"
config **.macLayer.queue.typename PriorityQueue
config **.macLayer.queue.numQueues 2
config **.macLayer.queue.queue[*].packetCapacity 4
config **.macLayer.queue.queue*.typename DropTailQueue
config **.macLayer.queue.classifier.classifierClass "\"inet::PacketVlanReqClassifier\""
config network FramePreemptionShowcase
config sim-time-limit 1s
config *.*.ethernet.typename EthernetLayer
config *.host*.eth[0].typename LayeredEthernetInterface
config *.host*.eth[0].bitrate 100Mbps
config **.recordPcap true
config **.dumpProtocols "\"ethernetphy\""
config **.crcMode "\"computed\""
config **.fcsMode "\"computed\""
config **.arp.typename GlobalArp
config *.host1.numApps 2
config *.host1.app[*].typename UdpSourceApp
config *.host1.app[0].source.packetNameFormat "\"background-%c\""
config *.host1.app[1].source.packetNameFormat "\"ts-%c\""
config *.host1.app[*].tagger.typename PacketTagger
config *.host1.app[0].tagger.vlanId 1
config *.host1.app[1].tagger.vlanId 0
config *.host1.app[*].io.destAddress "\"host2\""
config *.host1.app[0].io.destPort 1000
config *.host1.app[1].io.destPort 1001
config *.host1.app[0].source.packetLength 1200B
config *.host1.app[0].source.productionInterval truncnormal(100us,50us)
config *.host1.app[0].source.initialProductionOffset 5us
config *.host1.app[1].source.packetLength 1200B
config *.host1.app[1].source.productionInterval truncnormal(1ms,500us)
config *.host2.numApps 2
config *.host2.app[*].typename UdpSinkApp
config *.host2.app[0].io.localPort 1000
config *.host2.app[1].io.localPort 1001

scalar FramePreemptionShowcase.host1.ethernet.macHeaderInserter outgoingPackets:count 9864
attr recordingmode count
attr source "merge(packetPushedOut, packetPulledOut)"
attr title "outgoing packets, count"
attr unit pk
scalar FramePreemptionShowcase.host1.ethernet.macHeaderInserter outgoingPacketLengths:sum 97127424
attr interpolationmode none
attr recordingmode sum
attr source "packetLength(merge(packetPushedOut, packetPulledOut))"
attr title "outgoing packet lengths, sum"
attr unit b
statistic FramePreemptionShowcase.host1.ethernet.macHeaderInserter outgoingPacketLengths:histogram
field count 9864
field mean 9846.6569343066
field stddev 874.08200961475
field min 1296
field max 9936
field sum 97127424
field sqrsum 963915945984
attr interpolationmode none
attr recordingmode histogram
attr source "packetLength(merge(packetPushedOut, packetPulledOut))"
attr title "outgoing packet lengths"
attr unit b
bin	-inf	0
bin	0	0
bin	200	0
bin	400	0
bin	600	0
bin	800	0
bin	1000	0
bin	1200	102
bin	1400	0
bin	1600	0
bin	1800	0
bin	2000	0
bin	2200	0
bin	2400	0
bin	2600	0
bin	2800	0
bin	3000	0
bin	3200	0
bin	3400	0
bin	3600	0
bin	3800	0
bin	4000	0
bin	4200	0
bin	4400	0
bin	4600	0
bin	4800	0
bin	5000	0
bin	5200	0
bin	5400	0
bin	5600	0
bin	5800	0
bin	6000	0
bin	6200	0
bin	6400	0
bin	6600	0
bin	6800	0
bin	7000	0
bin	7200	0
bin	7400	0
bin	7600	0
bin	7800	0
bin	8000	0
bin	8200	0
bin	8400	0
bin	8600	0
bin	8800	0
bin	9000	0
bin	9200	0
bin	9400	0
bin	9600	0
bin	9800	9762
bin	10000	0
bin	10200	0
bin	10400	0
bin	10600	0
bin	10800	0
bin	11000	0
bin	11200	0
bin	11400	0
bin	11600	0
bin	11800	0
bin	12000	0
bin	12200	0
scalar FramePreemptionShowcase.host1.ethernet.macHeaderInserter flowOutgoingPacketLengths:sum 0
attr interpolationmode none
attr recordingmode sum
attr source "packetLength(demuxFlow(merge(packetPushedOut, packetPulledOut)))"
attr title "flow specific outgoing packet lengths, sum"
attr unit b
statistic FramePreemptionShowcase.host1.ethernet.macHeaderInserter flowOutgoingPacketLengths:histogram
field count 0
field mean -nan
field stddev nan
field min nan
field max nan
field sum 0
field sqrsum 0
attr interpolationmode none
attr recordingmode histogram
attr source "packetLength(demuxFlow(merge(packetPushedOut, packetPulledOut)))"
attr title "flow specific outgoing packet lengths"
attr unit b
bin	-inf	0
bin	0	0
bin	1	0
scalar FramePreemptionShowcase.host1.ethernet.macHeaderInserter incomingPackets:count 9864
attr recordingmode count
attr source "merge(packetPushedIn, packetPulledIn)"
attr title "incoming packets, count"
attr unit pk
scalar FramePreemptionShowcase.host1.ethernet.macHeaderInserter incomingPacketLengths:sum 96022656
attr interpolationmode none
attr recordingmode sum
attr source "packetLength(merge(packetPushedIn, packetPulledIn))"
attr title "incoming packet lengths, sum"
attr unit b
statistic FramePreemptionShowcase.host1.ethernet.macHeaderInserter incomingPacketLengths:histogram
field count 9864
field mean 9734.6569343066
field stddev 874.08200961475
field min 1184
field max 9824
field sum 96022656
field sqrsum 942283137024
attr interpolationmode none
attr recordingmode histogram
attr source "packetLength(merge(packetPushedIn, packetPulledIn))"
attr title "incoming packet lengths"
attr unit b
bin	-inf	0
bin	0	0
bin	200	0
bin	400	0
bin	600	0
bin	800	0
bin	1000	102
bin	1200	0
bin	1400	0
bin	1600	0
bin	1800	0
bin	2000	0
bin	2200	0
bin	2400	0
bin	2600	0
bin	2800	0
bin	3000	0
bin	3200	0
bin	3400	0
bin	3600	0
bin	3800	0
bin	4000	0
bin	4200	0
bin	4400	0
bin	4600	0
bin	4800	0
bin	5000	0
bin	5200	0
bin	5400	0
bin	5600	0
bin	5800	0
bin	6000	0
bin	6200	0
bin	6400	0
bin	6600	0
bin	6800	0
bin	7000	0
bin	7200	0
bin	7400	0
bin	7600	0
bin	7800	0
bin	8000	0
bin	8200	0
bin	8400	0
bin	8600	0
bin	8800	0
bin	9000	0
bin	9200	0
bin	9400	0
bin	9600	0
bin	9800	9762
bin	10000	0
bin	10200	0
bin	10400	0
bin	10600	0
bin	10800	0
bin	11000	0
bin	11200	0
bin	11400	0
bin	11600	0
bin	11800	0
bin	12000	0
scalar FramePreemptionShowcase.host1.ethernet.macHeaderInserter flowIncomingPacketLengths:sum 0
attr interpolationmode none
attr recordingmode sum
attr source "packetLength(demuxFlow(merge(packetPushedIn, packetPulledIn)))"
attr title "flow specific incoming packet lengths, sum"
attr unit b
statistic FramePreemptionShowcase.host1.ethernet.macHeaderInserter flowIncomingPacketLengths:histogram
field count 0
field mean -nan
field stddev nan
field min nan
field max nan
field sum 0
field sqrsum 0
attr interpolationmode none
attr recordingmode histogram
attr source "packetLength(demuxFlow(merge(packetPushedIn, packetPulledIn)))"
attr title "flow specific incoming packet lengths"
attr unit b
bin	-inf	0
bin	0	0
bin	1	0
scalar FramePreemptionShowcase.host1.ethernet.paddingInserter outgoingPackets:count 9864
attr recordingmode count
attr source "merge(packetPushedOut, packetPulledOut)"
attr title "outgoing packets, count"
attr unit pk
scalar FramePreemptionShowcase.host1.ethernet.paddingInserter outgoingPacketLengths:sum 97127424
attr interpolationmode none
attr recordingmode sum
attr source "packetLength(merge(packetPushedOut, packetPulledOut))"
attr title "outgoing packet lengths, sum"
attr unit b
statistic FramePreemptionShowcase.host1.ethernet.paddingInserter outgoingPacketLengths:histogram
field count 9864
field mean 9846.6569343066
field stddev 874.08200961475
field min 1296
field max 9936
field sum 97127424
field sqrsum 963915945984
attr interpolationmode none
attr recordingmode histogram
attr source "packetLength(merge(packetPushedOut, packetPulledOut))"
attr title "outgoing packet lengths"
attr unit b
bin	-inf	0
bin	0	0
bin	200	0
bin	400	0
bin	600	0
bin	800	0
bin	1000	0
bin	1200	102
bin	1400	0
bin	1600	0
bin	1800	0
bin	2000	0
bin	2200	0
bin	2400	0
bin	2600	0
bin	2800	0
bin	3000	0
bin	3200	0
bin	3400	0
bin	3600	0
bin	3800	0
bin	4000	0
bin	4200	0
bin	4400	0
bin	4600	0
bin	4800	0
bin	5000	0
bin	5200	0
bin	5400	0
bin	5600	0
bin	5800	0
bin	6000	0
bin	6200	0
bin	6400	0
bin	6600	0
bin	6800	0
bin	7000	0
bin	7200	0
bin	7400	0
bin	7600	0
bin	7800	0
bin	8000	0
bin	8200	0
bin	8400	0
bin	8600	0
bin	8800	0
bin	9000	0
bin	9200	0
bin	9400	0
bin	9600	0
bin	9800	9762
bin	10000	0
bin	10200	0
bin	10400	0
bin	10600	0
bin	10800	0
bin	11000	0
bin	11200	0
bin	11400	0
bin	11600	0
bin	11800	0
bin	12000	0
bin	12200	0
scalar FramePreemptionShowcase.host1.ethernet.paddingInserter flowOutgoingPacketLengths:sum 0
attr interpolationmode none
attr recordingmode sum
attr source "packetLength(demuxFlow(merge(packetPushedOut, packetPulledOut)))"
attr title "flow specific outgoing packet lengths, sum"
attr unit b
statistic FramePreemptionShowcase.host1.ethernet.paddingInserter flowOutgoingPacketLengths:histogram
field count 0
field mean -nan
field stddev nan
field min nan
field max nan
field sum 0
field sqrsum 0
attr interpolationmode none
attr recordingmode histogram
attr source "packetLength(demuxFlow(merge(packetPushedOut, packetPulledOut)))"
attr title "flow specific outgoing packet lengths"
attr unit b
bin	-inf	0
bin	0	0
bin	1	0
scalar FramePreemptionShowcase.host1.ethernet.paddingInserter incomingPackets:count 9864
attr recordingmode count
attr source "merge(packetPushedIn, packetPulledIn)"
attr title "incoming packets, count"
attr unit pk
scalar FramePreemptionShowcase.host1.ethernet.paddingInserter incomingPacketLengths:sum 97127424
attr interpolationmode none
attr recordingmode sum
attr source "packetLength(merge(packetPushedIn, packetPulledIn))"
attr title "incoming packet lengths, sum"
attr unit b
statistic FramePreemptionShowcase.host1.ethernet.paddingInserter incomingPacketLengths:histogram
field count 9864
field mean 9846.6569343066
field stddev 874.08200961475
field min 1296
field max 9936
field sum 97127424
field sqrsum 963915945984
attr interpolationmode none
attr recordingmode histogram
attr source "packetLength(merge(packetPushedIn, packetPulledIn))"
attr title "incoming packet lengths"
attr unit b
bin	-inf	0
bin	0	0
bin	200	0
bin	400	0
bin	600	0
bin	800	0
bin	1000	0
bin	1200	102
bin	1400	0
bin	1600	0
bin	1800	0
bin	2000	0
bin	2200	0
bin	2400	0
bin	2600	0
bin	2800	0
bin	3000	0
bin	3200	0
bin	3400	0
bin	3600	0
bin	3800	0
bin	4000	0
bin	4200	0
bin	4400	0
bin	4600	0
bin	4800	0
bin	5000	0
bin	5200	0
bin	5400	0
bin	5600	0
bin	5800	0
bin	6000	0
bin	6200	0
bin	6400	0
bin	6600	0
bin	6800	0
bin	7000	0
bin	7200	0
bin	7400	0
bin	7600	0
bin	7800	0
bin	8000	0
bin	8200	0
bin	8400	0
bin	8600	0
bin	8800	0
bin	9000	0
bin	9200	0
bin	9400	0
bin	9600	0
bin	9800	9762
bin	10000	0
bin	10200	0
bin	10400	0
bin	10600	0
bin	10800	0
bin	11000	0
bin	11200	0
bin	11400	0
bin	11600	0
bin	11800	0
bin	12000	0
bin	12200	0
scalar FramePreemptionShowcase.host1.ethernet.paddingInserter flowIncomingPacketLengths:sum 0
attr interpolationmode none
attr recordingmode sum
attr source "packetLength(demuxFlow(merge(packetPushedIn, packetPulledIn)))"
attr title "flow specific incoming packet lengths, sum"
attr unit b
statistic FramePreemptionShowcase.host1.ethernet.paddingInserter flowIncomingPacketLengths:histogram
field count 0
field mean -nan
field stddev nan
field min nan
field max nan
field sum 0
field sqrsum 0
attr interpolationmode none
attr recordingmode histogram
attr source "packetLength(demuxFlow(merge(packetPushedIn, packetPulledIn)))"
attr title "flow specific incoming packet lengths"
attr unit b
bin	-inf	0
bin	0	0
bin	1	0
scalar FramePreemptionShowcase.host1.ethernet.fcsInserter outgoingPackets:count 9864
attr recordingmode count
attr source "merge(packetPushedOut, packetPulledOut)"
attr title "outgoing packets, count"
attr unit pk
scalar FramePreemptionShowcase.host1.ethernet.fcsInserter outgoingPacketLengths:sum 97443072
attr interpolationmode none
attr recordingmode sum
attr source "packetLength(merge(packetPushedOut, packetPulledOut))"
attr title "outgoing packet lengths, sum"
attr unit b
statistic FramePreemptionShowcase.host1.ethernet.fcsInserter outgoingPacketLengths:histogram
field count 9864
field mean 9878.6569343066
field stddev 874.08200961475
field min 1328
field max 9968
field sum 97443072
field sqrsum 970142201856
attr interpolationmode none
attr recordingmode histogram
attr source "packetLength(merge(packetPushedOut, packetPulledOut))"
attr title "outgoing packet lengths"
attr unit b
bin	-inf	0
bin	0	0
bin	200	0
bin	400	0
bin	600	0
bin	800	0
bin	1000	0
bin	1200	102
bin	1400	0
bin	1600	0
bin	1800	0
bin	2000	0
bin	2200	0
bin	2400	0
bin	2600	0
bin	2800	0
bin	3000	0
bin	3200	0
bin	3400	0
bin	3600	0
bin	3800	0
bin	4000	0
bin	4200	0
bin	4400	0
bin	4600	0
bin	4800	0
bin	5000	0
bin	5200	0
bin	5400	0
bin	5600	0
bin	5800	0
bin	6000	0
bin	6200	0
bin	6400	0
bin	6600	0
bin	6800	0
bin	7000	0
bin	7200	0
bin	7400	0
bin	7600	0
bin	7800	0
bin	8000	0
bin	8200	0
bin	8400	0
bin	8600	0
bin	8800	0
bin	9000	0
bin	9200	0
bin	9400	0
bin	9600	0
bin	9800	9762
bin	10000	0
bin	10200	0
bin	10400	0
bin	10600	0
bin	10800	0
bin	11000	0
bin	11200	0
bin	11400	0
bin	11600	0
bin	11800	0
bin	12000	0
bin	12200	0
scalar FramePreemptionShowcase.host1.ethernet.fcsInserter flowOutgoingPacketLengths:sum 0
attr interpolationmode none
attr recordingmode sum
attr source "packetLength(demuxFlow(merge(packetPushedOut, packetPulledOut)))"
attr title "flow specific outgoing packet lengths, sum"
attr unit b
statistic FramePreemptionShowcase.host1.ethernet.fcsInserter flowOutgoingPacketLengths:histogram
field count 0
field mean -nan
field stddev nan
field min nan
field max nan
field sum 0
field sqrsum 0
attr interpolationmode none
attr recordingmode histogram
attr source "packetLength(demuxFlow(merge(packetPushedOut, packetPulledOut)))"
attr title "flow specific outgoing packet lengths"
attr unit b
bin	-inf	0
bin	0	0
bin	1	0
scalar FramePreemptionShowcase.host1.ethernet.fcsInserter incomingPackets:count 9864
attr recordingmode count
attr source "merge(packetPushedIn, packetPulledIn)"
attr title "incoming packets, count"
attr unit pk
scalar FramePreemptionShowcase.host1.ethernet.fcsInserter incomingPacketLengths:sum 97127424
attr interpolationmode none
attr recordingmode sum
attr source "packetLength(merge(packetPushedIn, packetPulledIn))"
attr title "incoming packet lengths, sum"
attr unit b
statistic FramePreemptionShowcase.host1.ethernet.fcsInserter incomingPacketLengths:histogram
field count 9864
field mean 9846.6569343066
field stddev 874.08200961475
field min 1296
field max 9936
field sum 97127424
field sqrsum 963915945984
attr interpolationmode none
attr recordingmode histogram
attr source "packetLength(merge(packetPushedIn, packetPulledIn))"
attr title "incoming packet lengths"
attr unit b
bin	-inf	0
bin	0	0
bin	200	0
bin	400	0
bin	600	0
bin	800	0
bin	1000	0
bin	1200	102
bin	1400	0
bin	1600	0
bin	1800	0
bin	2000	0
bin	2200	0
bin	2400	0
bin	2600	0
bin	2800	0
bin	3000	0
bin	3200	0
bin	3400	0
bin	3600	0
bin	3800	0
bin	4000	0
bin	4200	0
bin	4400	0
bin	4600	0
bin	4800	0
bin	5000	0
bin	5200	0
bin	5400	0
bin	5600	0
bin	5800	0
bin	6000	0
bin	6200	0
bin	6400	0
bin	6600	0
bin	6800	0
bin	7000	0
bin	7200	0
bin	7400	0
bin	7600	0
bin	7800	0
bin	8000	0
bin	8200	0
bin	8400	0
bin	8600	0
bin	8800	0
bin	9000	0
bin	9200	0
bin	9400	0
bin	9600	0
bin	9800	9762
bin	10000	0
bin	10200	0
bin	10400	0
bin	10600	0
bin	10800	0
bin	11000	0
bin	11200	0
bin	11400	0
bin	11600	0
bin	11800	0
bin	12000	0
bin	12200	0
scalar FramePreemptionShowcase.host1.ethernet.fcsInserter flowIncomingPacketLengths:sum 0
attr interpolationmode none
attr recordingmode sum
attr source "packetLength(demuxFlow(merge(packetPushedIn, packetPulledIn)))"
attr title "flow specific incoming packet lengths, sum"
attr unit b
statistic FramePreemptionShowcase.host1.ethernet.fcsInserter flowIncomingPacketLengths:histogram
field count 0
field mean -nan
field stddev nan
field min nan
field max nan
field sum 0
field sqrsum 0
attr interpolationmode none
attr recordingmode histogram
attr source "packetLength(demuxFlow(merge(packetPushedIn, packetPulledIn)))"
attr title "flow specific incoming packet lengths"
attr unit b
bin	-inf	0
bin	0	0
bin	1	0
scalar FramePreemptionShowcase.host1.ethernet.macHeaderChecker outgoingPackets:count 0
attr recordingmode count
attr source "merge(packetPushedOut, packetPulledOut)"
attr title "outgoing packets, count"
attr unit pk
scalar FramePreemptionShowcase.host1.ethernet.macHeaderChecker outgoingPacketLengths:sum 0
attr interpolationmode none
attr recordingmode sum
attr source "packetLength(merge(packetPushedOut, packetPulledOut))"
attr title "outgoing packet lengths, sum"
attr unit b
statistic FramePreemptionShowcase.host1.ethernet.macHeaderChecker outgoingPacketLengths:histogram
field count 0
field mean -nan
field stddev nan
field min nan
field max nan
field sum 0
field sqrsum 0
attr interpolationmode none
attr recordingmode histogram
attr source "packetLength(merge(packetPushedOut, packetPulledOut))"
attr title "outgoing packet lengths"
attr unit b
bin	-inf	0
bin	0	0
bin	1	0
scalar FramePreemptionShowcase.host1.ethernet.macHeaderChecker flowOutgoingPacketLengths:sum 0
attr interpolationmode none
attr recordingmode sum
attr source "packetLength(demuxFlow(merge(packetPushedOut, packetPulledOut)))"
attr title "flow specific outgoing packet lengths, sum"
attr unit b
statistic FramePreemptionShowcase.host1.ethernet.macHeaderChecker flowOutgoingPacketLengths:histogram
field count 0
field mean -nan
field stddev nan
field min nan
field max nan
field sum 0
field sqrsum 0
attr interpolationmode none
attr recordingmode histogram
attr source "packetLength(demuxFlow(merge(packetPushedOut, packetPulledOut)))"
attr title "flow specific outgoing packet lengths"
attr unit b
bin	-inf	0
bin	0	0
bin	1	0
scalar FramePreemptionShowcase.host1.ethernet.macHeaderChecker incomingPackets:count 0
attr recordingmode count
attr source "merge(packetPushedIn, packetPulledIn)"
attr title "incoming packets, count"
attr unit pk
scalar FramePreemptionShowcase.host1.ethernet.macHeaderChecker incomingPacketLengths:sum 0
attr interpolationmode none
attr recordingmode sum
attr source "packetLength(merge(packetPushedIn, packetPulledIn))"
attr title "incoming packet lengths, sum"
attr unit b
statistic FramePreemptionShowcase.host1.ethernet.macHeaderChecker incomingPacketLengths:histogram
field count 0
field mean -nan
field stddev nan
field min nan
field max nan
field sum 0
field sqrsum 0
attr interpolationmode none
attr recordingmode histogram
attr source "packetLength(merge(packetPushedIn, packetPulledIn))"
attr title "incoming packet lengths"
attr unit b
bin	-inf	0
bin	0	0
bin	1	0
scalar FramePreemptionShowcase.host1.ethernet.macHeaderChecker flowIncomingPacketLengths:sum 0
attr interpolationmode none
attr recordingmode sum
attr source "packetLength(demuxFlow(merge(packetPushedIn, packetPulledIn)))"
attr title "flow specific incoming packet lengths, sum"
attr unit b
statistic FramePreemptionShowcase.host1.ethernet.macHeaderChecker flowIncomingPacketLengths:histogram
field count 0
field mean -nan
field stddev nan
field min nan
field max nan
field sum 0
field sqrsum 0
attr interpolationmode none
attr recordingmode histogram
attr source "packetLength(demuxFlow(merge(packetPushedIn, packetPulledIn)))"
attr title "flow specific incoming packet lengths"
attr unit b
bin	-inf	0
bin	0	0
bin	1	0
scalar FramePreemptionShowcase.host1.ethernet.macHeaderChecker droppedPackets:count 0
attr recordingmode count
attr source packetDropped
attr title "dropped packets, count"
attr unit pk
scalar FramePreemptionShowcase.host1.ethernet.macHeaderChecker droppedPacketLengths:sum 0
attr interpolationmode none
attr recordingmode sum
attr source packetLength(packetDropped)
attr title "dropped packet lengths, sum"
attr unit b
statistic FramePreemptionShowcase.host1.ethernet.macHeaderChecker droppedPacketLengths:histogram
field count 0
field mean -nan
field stddev nan
field min nan
field max nan
field sum 0
field sqrsum 0
attr interpolationmode none
attr recordingmode histogram
attr source packetLength(packetDropped)
attr title "dropped packet lengths"
attr unit b
bin	-inf	0
bin	0	0
bin	1	0
scalar FramePreemptionShowcase.host1.ethernet.macHeaderChecker flowDroppedPacketLengths:sum 0
attr interpolationmode none
attr recordingmode sum
attr source packetLength(demuxFlow(packetDropped))
attr title "flow specific dropped packet lengths, sum"
attr unit b
statistic FramePreemptionShowcase.host1.ethernet.macHeaderChecker flowDroppedPacketLengths:histogram
field count 0
field mean -nan
field stddev nan
field min nan
field max nan
field sum 0
field sqrsum 0
attr interpolationmode none
attr recordingmode histogram
attr source packetLength(demuxFlow(packetDropped))
attr title "flow specific dropped packet lengths"
attr unit b
bin	-inf	0
bin	0	0
bin	1	0
scalar FramePreemptionShowcase.host1.ethernet.fcsChecker outgoingPackets:count 0
attr recordingmode count
attr source "merge(packetPushedOut, packetPulledOut)"
attr title "outgoing packets, count"
attr unit pk
scalar FramePreemptionShowcase.host1.ethernet.fcsChecker outgoingPacketLengths:sum 0
attr interpolationmode none
attr recordingmode sum
attr source "packetLength(merge(packetPushedOut, packetPulledOut))"
attr title "outgoing packet lengths, sum"
attr unit b
statistic FramePreemptionShowcase.host1.ethernet.fcsChecker outgoingPacketLengths:histogram
field count 0
field mean -nan
field stddev nan
field min nan
field max nan
field sum 0
field sqrsum 0
attr interpolationmode none
attr recordingmode histogram
attr source "packetLength(merge(packetPushedOut, packetPulledOut))"
attr title "outgoing packet lengths"
attr unit b
bin	-inf	0
bin	0	0
bin	1	0
scalar FramePreemptionShowcase.host1.ethernet.fcsChecker flowOutgoingPacketLengths:sum 0
attr interpolationmode none
attr recordingmode sum
attr source "packetLength(demuxFlow(merge(packetPushedOut, packetPulledOut)))"
attr title "flow specific outgoing packet lengths, sum"
attr unit b
statistic FramePreemptionShowcase.host1.ethernet.fcsChecker flowOutgoingPacketLengths:histogram
field count 0
field mean -nan
field stddev nan
field min nan
field max nan
field sum 0
field sqrsum 0
attr interpolationmode none
attr recordingmode histogram
attr source "packetLength(demuxFlow(merge(packetPushedOut, packetPulledOut)))"
attr title "flow specific outgoing packet lengths"
attr unit b
bin	-inf	0
bin	0	0
bin	1	0
scalar FramePreemptionShowcase.host1.ethernet.fcsChecker incomingPackets:count 0
attr recordingmode count
attr source "merge(packetPushedIn, packetPulledIn)"
attr title "incoming packets, count"
attr unit pk
scalar FramePreemptionShowcase.host1.ethernet.fcsChecker incomingPacketLengths:sum 0
attr interpolationmode none
attr recordingmode sum
attr source "packetLength(merge(packetPushedIn, packetPulledIn))"
attr title "incoming packet lengths, sum"
attr unit b
statistic FramePreemptionShowcase.host1.ethernet.fcsChecker incomingPacketLengths:histogram
field count 0
field mean -nan
field stddev nan
field min nan
field max nan
field sum 0
field sqrsum 0
attr interpolationmode none
attr recordingmode histogram
attr source "packetLength(merge(packetPushedIn, packetPulledIn))"
attr title "incoming packet lengths"
attr unit b
bin	-inf	0
bin	0	0
bin	1	0
scalar FramePreemptionShowcase.host1.ethernet.fcsChecker flowIncomingPacketLengths:sum 0
attr interpolationmode none
attr recordingmode sum
attr source "packetLength(demuxFlow(merge(packetPushedIn, packetPulledIn)))"
attr title "flow specific incoming packet lengths, sum"
attr unit b
statistic FramePreemptionShowcase.host1.ethernet.fcsChecker flowIncomingPacketLengths:histogram
field count 0
field mean -nan
field stddev nan
field min nan
field max nan
field sum 0
field sqrsum 0
attr interpolationmode none
attr recordingmode histogram
attr source "packetLength(demuxFlow(merge(packetPushedIn, packetPulledIn)))"
attr title "flow specific incoming packet lengths"
attr unit b
bin	-inf	0
bin	0	0
bin	1	0
scalar FramePreemptionShowcase.host1.ethernet.fcsChecker droppedPackets:count 0
attr recordingmode count
attr source packetDropped
attr title "dropped packets, count"
attr unit pk
scalar FramePreemptionShowcase.host1.ethernet.fcsChecker droppedPacketLengths:sum 0
attr interpolationmode none
attr recordingmode sum
attr source packetLength(packetDropped)
attr title "dropped packet lengths, sum"
attr unit b
statistic FramePreemptionShowcase.host1.ethernet.fcsChecker droppedPacketLengths:histogram
field count 0
field mean -nan
field stddev nan
field min nan
field max nan
field sum 0
field sqrsum 0
attr interpolationmode none
attr recordingmode histogram
attr source packetLength(packetDropped)
attr title "dropped packet lengths"
attr unit b
bin	-inf	0
bin	0	0
bin	1	0
scalar FramePreemptionShowcase.host1.ethernet.fcsChecker flowDroppedPacketLengths:sum 0
attr interpolationmode none
attr recordingmode sum
attr source packetLength(demuxFlow(packetDropped))
attr title "flow specific dropped packet lengths, sum"
attr unit b
statistic FramePreemptionShowcase.host1.ethernet.fcsChecker flowDroppedPacketLengths:histogram
field count 0
field mean -nan
field stddev nan
field min nan
field max nan
field sum 0
field sqrsum 0
attr interpolationmode none
attr recordingmode histogram
attr source packetLength(demuxFlow(packetDropped))
attr title "flow specific dropped packet lengths"
attr unit b
bin	-inf	0
bin	0	0
bin	1	0
scalar FramePreemptionShowcase.host1.lo[0].lo rcvdPkFromHl:count 0
attr interpolationmode none
attr recordingmode count
attr source packetReceivedFromUpper
attr title "packets received from higher layer, count"
scalar FramePreemptionShowcase.host1.lo[0].lo rcvdPkFromHl:sum(packetBytes) 0
attr interpolationmode none
attr recordingmode sum(packetBytes)
attr source packetReceivedFromUpper
attr title "packets received from higher layer, sum(packetBytes)"
scalar FramePreemptionShowcase.host1.lo[0].lo passedUpPk:count 0
attr interpolationmode none
attr recordingmode count
attr source packetSentToUpper
attr title "packets passed to higher layer, count"
scalar FramePreemptionShowcase.host1.lo[0].lo passedUpPk:sum(packetBytes) 0
attr interpolationmode none
attr recordingmode sum(packetBytes)
attr source packetSentToUpper
attr title "packets passed to higher layer, sum(packetBytes)"
scalar FramePreemptionShowcase.host1.lo[0] packetDropInterfaceDown:count 0
attr interpolationmode none
attr recordingmode count
attr source packetDropReasonIsInterfaceDown(packetDropped)
attr title "packet drops: interface down, count"
scalar FramePreemptionShowcase.host1.lo[0] packetDropInterfaceDown:sum(packetBytes) 0
attr interpolationmode none
attr recordingmode sum(packetBytes)
attr source packetDropReasonIsInterfaceDown(packetDropped)
attr title "packet drops: interface down, sum(packetBytes)"
scalar FramePreemptionShowcase.host1.lo[0] packetDropNoCarrier:count 0
attr interpolationmode none
attr recordingmode count
attr source packetDropReasonIsNoCarrier(packetDropped)
attr title "packet drops: no carrier, count"
scalar FramePreemptionShowcase.host1.lo[0] packetDropNoCarrier:sum(packetBytes) 0
attr interpolationmode none
attr recordingmode sum(packetBytes)
attr source packetDropReasonIsNoCarrier(packetDropped)
attr title "packet drops: no carrier, sum(packetBytes)"
scalar FramePreemptionShowcase.host1.eth[0].macLayer.queue.classifier packets:count 9864
attr recordingmode count
attr source packetPushed
attr title "packets, count"
attr unit pk
scalar FramePreemptionShowcase.host1.eth[0].macLayer.queue.classifier packetLengths:sum 97443072
attr interpolationmode none
attr recordingmode sum
attr source packetLength(packetPushed)
attr title "packet lengths, sum"
attr unit b
statistic FramePreemptionShowcase.host1.eth[0].macLayer.queue.classifier packetLengths:histogram
field count 9864
field mean 9878.6569343066
field stddev 874.08200961475
field min 1328
field max 9968
field sum 97443072
field sqrsum 970142201856
attr interpolationmode none
attr recordingmode histogram
attr source packetLength(packetPushed)
attr title "packet lengths"
attr unit b
bin	-inf	0
bin	0	0
bin	200	0
bin	400	0
bin	600	0
bin	800	0
bin	1000	0
bin	1200	102
bin	1400	0
bin	1600	0
bin	1800	0
bin	2000	0
bin	2200	0
bin	2400	0
bin	2600	0
bin	2800	0
bin	3000	0
bin	3200	0
bin	3400	0
bin	3600	0
bin	3800	0
bin	4000	0
bin	4200	0
bin	4400	0
bin	4600	0
bin	4800	0
bin	5000	0
bin	5200	0
bin	5400	0
bin	5600	0
bin	5800	0
bin	6000	0
bin	6200	0
bin	6400	0
bin	6600	0
bin	6800	0
bin	7000	0
bin	7200	0
bin	7400	0
bin	7600	0
bin	7800	0
bin	8000	0
bin	8200	0
bin	8400	0
bin	8600	0
bin	8800	0
bin	9000	0
bin	9200	0
bin	9400	0
bin	9600	0
bin	9800	9762
bin	10000	0
bin	10200	0
bin	10400	0
bin	10600	0
bin	10800	0
bin	11000	0
bin	11200	0
bin	11400	0
bin	11600	0
bin	11800	0
bin	12000	0
bin	12200	0
scalar FramePreemptionShowcase.host1.eth[0].macLayer.queue.queue[0] queueLength:last 0
attr autoWarmupFilter false
attr interpolationmode sample-hold
attr recordingmode last
attr source "warmup(atomic(constant0(packetPushEnded) + count(packetPushStarted) - count(packetPulled) - count(packetRemoved) - count(packetDropped)))"
attr title "queue length, last"
attr unit pk
scalar FramePreemptionShowcase.host1.eth[0].macLayer.queue.queue[0] queueLength:max 1
attr autoWarmupFilter false
attr interpolationmode sample-hold
attr recordingmode max
attr source "warmup(atomic(constant0(packetPushEnded) + count(packetPushStarted) - count(packetPulled) - count(packetRemoved) - count(packetDropped)))"
attr title "queue length, max"
attr unit pk
scalar FramePreemptionShowcase.host1.eth[0].macLayer.queue.queue[0] queueLength:timeavg 0.005031493325
attr autoWarmupFilter false
attr interpolationmode sample-hold
attr recordingmode timeavg
attr source "warmup(atomic(constant0(packetPushEnded) + count(packetPushStarted) - count(packetPulled) - count(packetRemoved) - count(packetDropped)))"
attr title "queue length, timeavg"
attr unit pk
scalar FramePreemptionShowcase.host1.eth[0].macLayer.queue.queue[0] queueBitLength:last 0
attr autoWarmupFilter false
attr interpolationmode sample-hold
attr recordingmode last
attr source "warmup(atomic(constant0(packetPushEnded) + sum(packetLength(packetPushStarted)) - sum(packetLength(packetPulled)) - sum(packetLength(packetRemoved)) - sum(packetLength(packetDropped))))"
attr title "queue bit length, last"
attr unit b
scalar FramePreemptionShowcase.host1.eth[0].macLayer.queue.queue[0] queueBitLength:max 1328
attr autoWarmupFilter false
attr interpolationmode sample-hold
attr recordingmode max
attr source "warmup(atomic(constant0(packetPushEnded) + sum(packetLength(packetPushStarted)) - sum(packetLength(packetPulled)) - sum(packetLength(packetRemoved)) - sum(packetLength(packetDropped))))"
attr title "queue bit length, max"
attr unit b
scalar FramePreemptionShowcase.host1.eth[0].macLayer.queue.queue[0] queueBitLength:timeavg 6.6818231356
attr autoWarmupFilter false
attr interpolationmode sample-hold
attr recordingmode timeavg
attr source "warmup(atomic(constant0(packetPushEnded) + sum(packetLength(packetPushStarted)) - sum(packetLength(packetPulled)) - sum(packetLength(packetRemoved)) - sum(packetLength(packetDropped))))"
attr title "queue bit length, timeavg"
attr unit b
statistic FramePreemptionShowcase.host1.eth[0].macLayer.queue.queue[0] queueingTime:histogram
field count 102
field mean 4.9328365931373e-05
field stddev 3.1971146055077e-05
field min 0
field max 0.000100999057
field sum 0.005031493325
field sqrsum 3.5143291610444e-07
attr interpolationmode none
attr recordingmode histogram
attr source queueingTime(packetPulled)
attr title "queueing times"
attr unit s
bin	-inf	0
bin	0	7
bin	2e-06	3
bin	4e-06	1
bin	6e-06	0
bin	8e-06	2
bin	1e-05	4
bin	1.2e-05	2
bin	1.4e-05	4
bin	1.6e-05	1
bin	1.8e-05	2
bin	2e-05	2
bin	2.2e-05	0
bin	2.4e-05	5
bin	2.6e-05	0
bin	2.8e-05	1
bin	3e-05	3
bin	3.2e-05	1
bin	3.4e-05	1
bin	3.6e-05	2
bin	3.8e-05	2
bin	4e-05	0
bin	4.2e-05	2
bin	4.4e-05	3
bin	4.6e-05	4
bin	4.8e-05	1
bin	5e-05	0
bin	5.2e-05	2
bin	5.4e-05	3
bin	5.6e-05	1
bin	5.8e-05	2
bin	6e-05	3
bin	6.2e-05	0
bin	6.4e-05	1
bin	6.6e-05	1
bin	6.8e-05	2
bin	7e-05	1
bin	7.2e-05	3
bin	7.4e-05	1
bin	7.6e-05	3
bin	7.8e-05	3
bin	8e-05	0
bin	8.2e-05	4
bin	8.4e-05	0
bin	8.6e-05	1
bin	8.8e-05	3
bin	9e-05	3
bin	9.2e-05	2
bin	9.4e-05	6
bin	9.6e-05	1
bin	9.8e-05	2
bin	0.0001	1
bin	0.000102	0
bin	0.000104	0
bin	0.000106	0
bin	0.000108	0
bin	0.00011	0
bin	0.000112	0
bin	0.000114	0
bin	0.000116	0
bin	0.000118	0
bin	0.00012	0
bin	0.000122	0
bin	0.000124	0
bin	0.000126	0
bin	0.000128	0
scalar FramePreemptionShowcase.host1.eth[0].macLayer.queue.queue[0] outgoingPackets:count 102
attr recordingmode count
attr source packetPulled
attr title "outgoing packets, count"
attr unit pk
scalar FramePreemptionShowcase.host1.eth[0].macLayer.queue.queue[0] outgoingPacketLengths:sum 135456
attr interpolationmode none
attr recordingmode sum
attr source packetLength(packetPulled)
attr title "outgoing packet lengths, sum"
attr unit b
statistic FramePreemptionShowcase.host1.eth[0].macLayer.queue.queue[0] outgoingPacketLengths:histogram
field count 102
field mean 1328
field stddev 0
field min 1328
field max 1328
field sum 135456
field sqrsum 179885568
attr interpolationmode none
attr recordingmode histogram
attr source packetLength(packetPulled)
attr title "outgoing packet lengths"
attr unit b
bin	-inf	0
bin	1327	0
bin	1328	102
bin	1329	0
statistic FramePreemptionShowcase.host1.eth[0].macLayer.queue.queue[0] flowQueueingTime:histogram
field count 0
field mean -nan
field stddev nan
field min nan
field max nan
field sum 0
field sqrsum 0
attr interpolationmode none
attr recordingmode histogram
attr source queueingTime(demuxFlow(packetPulled))
attr title "flow queueing times"
attr unit s
bin	-inf	0
bin	0	0
bin	1	0
scalar FramePreemptionShowcase.host1.eth[0].macLayer.queue.queue[0] incomingPackets:count 102
attr recordingmode count
attr source packetPushStarted
attr title "incoming packets, count"
attr unit pk
scalar FramePreemptionShowcase.host1.eth[0].macLayer.queue.queue[0] incomingPacketLengths:sum 135456
attr interpolationmode none
attr recordingmode sum
attr source packetLength(packetPushStarted)
attr title "incoming packet lengths, sum"
attr unit b
statistic FramePreemptionShowcase.host1.eth[0].macLayer.queue.queue[0] incomingPacketLengths:histogram
field count 102
field mean 1328
field stddev 0
field min 1328
field max 1328
field sum 135456
field sqrsum 179885568
attr interpolationmode none
attr recordingmode histogram
attr source packetLength(packetPushStarted)
attr title "incoming packet lengths"
attr unit b
bin	-inf	0
bin	1327	0
bin	1328	102
bin	1329	0
scalar FramePreemptionShowcase.host1.eth[0].macLayer.queue.queue[0] droppedPacketsQueueOverflow:count 0
attr interpolationmode none
attr recordingmode count
attr source packetDropReasonIsQueueOverflow(packetDropped)
attr title "dropped packets: queue overflow, count"
attr unit pk
scalar FramePreemptionShowcase.host1.eth[0].macLayer.queue.queue[0] droppedPacketLengthsQueueOverflow:sum 0
attr interpolationmode none
attr recordingmode sum
attr source packetLength(packetDropReasonIsQueueOverflow(packetDropped))
attr title "dropped packet lengths: queue overflow, sum"
attr unit b
scalar FramePreemptionShowcase.host1.eth[0].macLayer.queue.queue[1] queueLength:last 2
attr autoWarmupFilter false
attr interpolationmode sample-hold
attr recordingmode last
attr source "warmup(atomic(constant0(packetPushEnded) + count(packetPushStarted) - count(packetPulled) - count(packetRemoved) - count(packetDropped)))"
attr title "queue length, last"
attr unit pk
scalar FramePreemptionShowcase.host1.eth[0].macLayer.queue.queue[1] queueLength:max 4
attr autoWarmupFilter false
attr interpolationmode sample-hold
attr recordingmode max
attr source "warmup(atomic(constant0(packetPushEnded) + count(packetPushStarted) - count(packetPulled) - count(packetRemoved) - count(packetDropped)))"
attr title "queue length, max"
attr unit pk
scalar FramePreemptionShowcase.host1.eth[0].macLayer.queue.queue[1] queueLength:timeavg 1.586927497886
attr autoWarmupFilter false
attr interpolationmode sample-hold
attr recordingmode timeavg
attr source "warmup(atomic(constant0(packetPushEnded) + count(packetPushStarted) - count(packetPulled) - count(packetRemoved) - count(packetDropped)))"
attr title "queue length, timeavg"
attr unit pk
scalar FramePreemptionShowcase.host1.eth[0].macLayer.queue.queue[1] queueBitLength:last 19936
attr autoWarmupFilter false
attr interpolationmode sample-hold
attr recordingmode last
attr source "warmup(atomic(constant0(packetPushEnded) + sum(packetLength(packetPushStarted)) - sum(packetLength(packetPulled)) - sum(packetLength(packetRemoved)) - sum(packetLength(packetDropped))))"
attr title "queue bit length, last"
attr unit b
scalar FramePreemptionShowcase.host1.eth[0].macLayer.queue.queue[1] queueBitLength:max 39872
attr autoWarmupFilter false
attr interpolationmode sample-hold
attr recordingmode max
attr source "warmup(atomic(constant0(packetPushEnded) + sum(packetLength(packetPushStarted)) - sum(packetLength(packetPulled)) - sum(packetLength(packetRemoved)) - sum(packetLength(packetDropped))))"
attr title "queue bit length, max"
attr unit b
scalar FramePreemptionShowcase.host1.eth[0].macLayer.queue.queue[1] queueBitLength:timeavg 15818.493298928
attr autoWarmupFilter false
attr interpolationmode sample-hold
attr recordingmode timeavg
attr source "warmup(atomic(constant0(packetPushEnded) + sum(packetLength(packetPushStarted)) - sum(packetLength(packetPulled)) - sum(packetLength(packetRemoved)) - sum(packetLength(packetDropped))))"
attr title "queue bit length, timeavg"
attr unit b
statistic FramePreemptionShowcase.host1.eth[0].macLayer.queue.queue[1] queueingTime:histogram
field count 9566
field mean 0.00016586518655405
field stddev 0.00011393047866636
field min 0
field max 0.000411964164
field sum 1.586666374576
field sqrsum 0.00038732788693297
attr interpolationmode none
attr recordingmode histogram
attr source queueingTime(packetPulled)
attr title "queueing times"
attr unit s
bin	-inf	0
bin	0	1082
bin	1e-05	225
bin	2e-05	219
bin	3e-05	228
bin	4e-05	225
bin	5e-05	235
bin	6e-05	242
bin	7e-05	273
bin	8e-05	247
bin	9e-05	253
bin	0.0001	253
bin	0.00011	222
bin	0.00012	258
bin	0.00013	251
bin	0.00014	230
bin	0.00015	284
bin	0.00016	271
bin	0.00017	272
bin	0.00018	242
bin	0.00019	259
bin	0.0002	237
bin	0.00021	238
bin	0.00022	255
bin	0.00023	243
bin	0.00024	254
bin	0.00025	240
bin	0.00026	221
bin	0.00027	197
bin	0.00028	232
bin	0.00029	217
bin	0.0003	228
bin	0.00031	190
bin	0.00032	182
bin	0.00033	137
bin	0.00034	134
bin	0.00035	152
bin	0.00036	138
bin	0.00037	112
bin	0.00038	78
bin	0.00039	69
bin	0.0004	40
bin	0.00041	1
bin	0.00042	0
bin	0.00043	0
bin	0.00044	0
bin	0.00045	0
bin	0.00046	0
bin	0.00047	0
bin	0.00048	0
bin	0.00049	0
bin	0.0005	0
bin	0.00051	0
scalar FramePreemptionShowcase.host1.eth[0].macLayer.queue.queue[1] outgoingPackets:count 9566
attr recordingmode count
attr source packetPulled
attr title "outgoing packets, count"
attr unit pk
scalar FramePreemptionShowcase.host1.eth[0].macLayer.queue.queue[1] outgoingPacketLengths:sum 95353888
attr interpolationmode none
attr recordingmode sum
attr source packetLength(packetPulled)
attr title "outgoing packet lengths, sum"
attr unit b
statistic FramePreemptionShowcase.host1.eth[0].macLayer.queue.queue[1] outgoingPacketLengths:histogram
field count 9566
field mean 9968
field stddev 0
field min 9968
field max 9968
field sum 95353888
field sqrsum 950487555584
attr interpolationmode none
attr recordingmode histogram
attr source packetLength(packetPulled)
attr title "outgoing packet lengths"
attr unit b
bin	-inf	0
bin	9967	0
bin	9968	9566
bin	9969	0
statistic FramePreemptionShowcase.host1.eth[0].macLayer.queue.queue[1] flowQueueingTime:histogram
field count 0
field mean -nan
field stddev nan
field min nan
field max nan
field sum 0
field sqrsum 0
attr interpolationmode none
attr recordingmode histogram
attr source queueingTime(demuxFlow(packetPulled))
attr title "flow queueing times"
attr unit s
bin	-inf	0
bin	0	0
bin	1	0
scalar FramePreemptionShowcase.host1.eth[0].macLayer.queue.queue[1] incomingPackets:count 9762
attr recordingmode count
attr source packetPushStarted
attr title "incoming packets, count"
attr unit pk
scalar FramePreemptionShowcase.host1.eth[0].macLayer.queue.queue[1] incomingPacketLengths:sum 97307616
attr interpolationmode none
attr recordingmode sum
attr source packetLength(packetPushStarted)
attr title "incoming packet lengths, sum"
attr unit b
statistic FramePreemptionShowcase.host1.eth[0].macLayer.queue.queue[1] incomingPacketLengths:histogram
field count 9762
field mean 9968
field stddev 0
field min 9968
field max 9968
field sum 97307616
field sqrsum 969962316288
attr interpolationmode none
attr recordingmode histogram
attr source packetLength(packetPushStarted)
attr title "incoming packet lengths"
attr unit b
bin	-inf	0
bin	9967	0
bin	9968	9762
bin	9969	0
scalar FramePreemptionShowcase.host1.eth[0].macLayer.queue.queue[1] droppedPacketsQueueOverflow:count 194
attr interpolationmode none
attr recordingmode count
attr source packetDropReasonIsQueueOverflow(packetDropped)
attr title "dropped packets: queue overflow, count"
attr unit pk
scalar FramePreemptionShowcase.host1.eth[0].macLayer.queue.queue[1] droppedPacketLengthsQueueOverflow:sum 1933792
attr interpolationmode none
attr recordingmode sum
attr source packetLength(packetDropReasonIsQueueOverflow(packetDropped))
attr title "dropped packet lengths: queue overflow, sum"
attr unit b
scalar FramePreemptionShowcase.host1.eth[0].macLayer.queue.scheduler packets:count 9668
attr recordingmode count
attr source packetPulled
attr title "packets, count"
attr unit pk
scalar FramePreemptionShowcase.host1.eth[0].macLayer.queue.scheduler packetLengths:sum 95489344
attr interpolationmode none
attr recordingmode sum
attr source packetLength(packetPulled)
attr title "packet lengths, sum"
attr unit b
statistic FramePreemptionShowcase.host1.eth[0].macLayer.queue.scheduler packetLengths:histogram
field count 9668
field mean 9876.8456764584
field stddev 882.80510615979
field min 1328
field max 9968
field sum 95489344
field sqrsum 950667441152
attr interpolationmode none
attr recordingmode histogram
attr source packetLength(packetPulled)
attr title "packet lengths"
attr unit b
bin	-inf	0
bin	0	0
bin	200	0
bin	400	0
bin	600	0
bin	800	0
bin	1000	0
bin	1200	102
bin	1400	0
bin	1600	0
bin	1800	0
bin	2000	0
bin	2200	0
bin	2400	0
bin	2600	0
bin	2800	0
bin	3000	0
bin	3200	0
bin	3400	0
bin	3600	0
bin	3800	0
bin	4000	0
bin	4200	0
bin	4400	0
bin	4600	0
bin	4800	0
bin	5000	0
bin	5200	0
bin	5400	0
bin	5600	0
bin	5800	0
bin	6000	0
bin	6200	0
bin	6400	0
bin	6600	0
bin	6800	0
bin	7000	0
bin	7200	0
bin	7400	0
bin	7600	0
bin	7800	0
bin	8000	0
bin	8200	0
bin	8400	0
bin	8600	0
bin	8800	0
bin	9000	0
bin	9200	0
bin	9400	0
bin	9600	0
bin	9800	9566
bin	10000	0
bin	10200	0
bin	10400	0
bin	10600	0
bin	10800	0
bin	11000	0
bin	11200	0
bin	11400	0
bin	11600	0
bin	11800	0
bin	12000	0
bin	12200	0
scalar FramePreemptionShowcase.host1.eth[0].macLayer.queue queueLength:last 196
attr autoWarmupFilter false
attr interpolationmode sample-hold
attr recordingmode last
attr source "warmup(atomic(constant0(localSignal(packetPushEnded)) + count(localSignal(packetPushStarted)) - count(localSignal(packetPulled)) - count(localSignal(packetRemoved)) - count(localSignal(packetDropped))))"
attr title "queue length, last"
attr unit pk
scalar FramePreemptionShowcase.host1.eth[0].macLayer.queue queueLength:max 198
attr autoWarmupFilter false
attr interpolationmode sample-hold
attr recordingmode max
attr source "warmup(atomic(constant0(localSignal(packetPushEnded)) + count(localSignal(packetPushStarted)) - count(localSignal(packetPulled)) - count(localSignal(packetRemoved)) - count(localSignal(packetDropped))))"
attr title "queue length, max"
attr unit pk
scalar FramePreemptionShowcase.host1.eth[0].macLayer.queue queueLength:timeavg 89.86592958185
attr autoWarmupFilter false
attr interpolationmode sample-hold
attr recordingmode timeavg
attr source "warmup(atomic(constant0(localSignal(packetPushEnded)) + count(localSignal(packetPushStarted)) - count(localSignal(packetPulled)) - count(localSignal(packetRemoved)) - count(localSignal(packetDropped))))"
attr title "queue length, timeavg"
attr unit pk
scalar FramePreemptionShowcase.host1.eth[0].macLayer.queue queueBitLength:last 1953728
attr autoWarmupFilter false
attr interpolationmode sample-hold
attr recordingmode last
attr source "warmup(atomic(constant0(localSignal(packetPushEnded)) + sum(packetLength(localSignal(packetPushStarted))) - sum(packetLength(localSignal(packetPulled))) - sum(packetLength(localSignal(packetRemoved))) - sum(packetLength(localSignal(packetDropped)))))"
attr title "queue bit length, last"
attr unit b
scalar FramePreemptionShowcase.host1.eth[0].macLayer.queue queueBitLength:max 1973664
attr autoWarmupFilter false
attr interpolationmode sample-hold
attr recordingmode max
attr source "warmup(atomic(constant0(localSignal(packetPushEnded)) + sum(packetLength(localSignal(packetPushStarted))) - sum(packetLength(localSignal(packetPulled))) - sum(packetLength(localSignal(packetRemoved))) - sum(packetLength(localSignal(packetDropped)))))"
attr title "queue bit length, max"
attr unit b
scalar FramePreemptionShowcase.host1.eth[0].macLayer.queue queueBitLength:timeavg 895740.11396955
attr autoWarmupFilter false
attr interpolationmode sample-hold
attr recordingmode timeavg
attr source "warmup(atomic(constant0(localSignal(packetPushEnded)) + sum(packetLength(localSignal(packetPushStarted))) - sum(packetLength(localSignal(packetPulled))) - sum(packetLength(localSignal(packetRemoved))) - sum(packetLength(localSignal(packetDropped)))))"
attr title "queue bit length, timeavg"
attr unit b
statistic FramePreemptionShowcase.host1.eth[0].macLayer.queue queueingTime:histogram
field count 9668
field mean 0
field stddev 0
field min 0
field max 0
field sum 0
field sqrsum 0
attr interpolationmode none
attr recordingmode histogram
attr source queueingTime(localSignal(packetPulled))
attr title "queueing times"
attr unit s
bin	-inf	0
bin	-0.5	0
bin	-0.48	0
bin	-0.46	0
bin	-0.44	0
bin	-0.42	0
bin	-0.4	0
bin	-0.38	0
bin	-0.36	0
bin	-0.34	0
bin	-0.32	0
bin	-0.3	0
bin	-0.28	0
bin	-0.26	0
bin	-0.24	0
bin	-0.22	0
bin	-0.2	0
bin	-0.18	0
bin	-0.16	0
bin	-0.14	0
bin	-0.12	0
bin	-0.1	0
bin	-0.08	0
bin	-0.06	0
bin	-0.04	0
bin	-0.02	0
bin	0	9668
bin	0.02	0
bin	0.04	0
bin	0.06	0
bin	0.08	0
bin	0.1	0
bin	0.12	0
bin	0.14	0
bin	0.16	0
bin	0.18	0
bin	0.2	0
bin	0.22	0
bin	0.24	0
bin	0.26	0
bin	0.28	0
bin	0.3	0
bin	0.32	0
bin	0.34	0
bin	0.36	0
bin	0.38	0
bin	0.4	0
bin	0.42	0
bin	0.44	0
bin	0.46	0
bin	0.48	0
bin	0.5	0
scalar FramePreemptionShowcase.host1.eth[0].macLayer.queue outgoingPackets:count 9668
attr recordingmode count
attr source localSignal(packetPulled)
attr title "outgoing packets, count"
attr unit pk
scalar FramePreemptionShowcase.host1.eth[0].macLayer.queue outgoingPacketLengths:sum 95489344
attr interpolationmode none
attr recordingmode sum
attr source packetLength(localSignal(packetPulled))
attr title "outgoing packet lengths, sum"
attr unit b
statistic FramePreemptionShowcase.host1.eth[0].macLayer.queue outgoingPacketLengths:histogram
field count 9668
field mean 9876.8456764584
field stddev 882.80510615979
field min 1328
field max 9968
field sum 95489344
field sqrsum 950667441152
attr interpolationmode none
attr recordingmode histogram
attr source packetLength(localSignal(packetPulled))
attr title "outgoing packet lengths"
attr unit b
bin	-inf	0
bin	0	0
bin	200	0
bin	400	0
bin	600	0
bin	800	0
bin	1000	0
bin	1200	102
bin	1400	0
bin	1600	0
bin	1800	0
bin	2000	0
bin	2200	0
bin	2400	0
bin	2600	0
bin	2800	0
bin	3000	0
bin	3200	0
bin	3400	0
bin	3600	0
bin	3800	0
bin	4000	0
bin	4200	0
bin	4400	0
bin	4600	0
bin	4800	0
bin	5000	0
bin	5200	0
bin	5400	0
bin	5600	0
bin	5800	0
bin	6000	0
bin	6200	0
bin	6400	0
bin	6600	0
bin	6800	0
bin	7000	0
bin	7200	0
bin	7400	0
bin	7600	0
bin	7800	0
bin	8000	0
bin	8200	0
bin	8400	0
bin	8600	0
bin	8800	0
bin	9000	0
bin	9200	0
bin	9400	0
bin	9600	0
bin	9800	9566
bin	10000	0
bin	10200	0
bin	10400	0
bin	10600	0
bin	10800	0
bin	11000	0
bin	11200	0
bin	11400	0
bin	11600	0
bin	11800	0
bin	12000	0
bin	12200	0
statistic FramePreemptionShowcase.host1.eth[0].macLayer.queue flowQueueingTime:histogram
field count 0
field mean -nan
field stddev nan
field min nan
field max nan
field sum 0
field sqrsum 0
attr interpolationmode none
attr recordingmode histogram
attr source queueingTime(demuxFlow(localSignal(packetPulled)))
attr title "flow queueing times"
attr unit s
bin	-inf	0
bin	0	0
bin	1	0
scalar FramePreemptionShowcase.host1.eth[0].macLayer.queue incomingPackets:count 9864
attr recordingmode count
attr source localSignal(packetPushStarted)
attr title "incoming packets, count"
attr unit pk
scalar FramePreemptionShowcase.host1.eth[0].macLayer.queue incomingPacketLengths:sum 97443072
attr interpolationmode none
attr recordingmode sum
attr source packetLength(localSignal(packetPushStarted))
attr title "incoming packet lengths, sum"
attr unit b
statistic FramePreemptionShowcase.host1.eth[0].macLayer.queue incomingPacketLengths:histogram
field count 9864
field mean 9878.6569343066
field stddev 874.08200961475
field min 1328
field max 9968
field sum 97443072
field sqrsum 970142201856
attr interpolationmode none
attr recordingmode histogram
attr source packetLength(localSignal(packetPushStarted))
attr title "incoming packet lengths"
attr unit b
bin	-inf	0
bin	0	0
bin	200	0
bin	400	0
bin	600	0
bin	800	0
bin	1000	0
bin	1200	102
bin	1400	0
bin	1600	0
bin	1800	0
bin	2000	0
bin	2200	0
bin	2400	0
bin	2600	0
bin	2800	0
bin	3000	0
bin	3200	0
bin	3400	0
bin	3600	0
bin	3800	0
bin	4000	0
bin	4200	0
bin	4400	0
bin	4600	0
bin	4800	0
bin	5000	0
bin	5200	0
bin	5400	0
bin	5600	0
bin	5800	0
bin	6000	0
bin	6200	0
bin	6400	0
bin	6600	0
bin	6800	0
bin	7000	0
bin	7200	0
bin	7400	0
bin	7600	0
bin	7800	0
bin	8000	0
bin	8200	0
bin	8400	0
bin	8600	0
bin	8800	0
bin	9000	0
bin	9200	0
bin	9400	0
bin	9600	0
bin	9800	9762
bin	10000	0
bin	10200	0
bin	10400	0
bin	10600	0
bin	10800	0
bin	11000	0
bin	11200	0
bin	11400	0
bin	11600	0
bin	11800	0
bin	12000	0
bin	12200	0
scalar FramePreemptionShowcase.host1.eth[0].macLayer.queue droppedPacketsQueueOverflow:count 0
attr interpolationmode none
attr recordingmode count
attr source packetDropReasonIsQueueOverflow(localSignal(packetDropped))
attr title "dropped packets: queue overflow, count"
attr unit pk
scalar FramePreemptionShowcase.host1.eth[0].macLayer.queue droppedPacketLengthsQueueOverflow:sum 0
attr interpolationmode none
attr recordingmode sum
attr source packetLength(packetDropReasonIsQueueOverflow(localSignal(packetDropped)))
attr title "dropped packet lengths: queue overflow, sum"
attr unit b
scalar FramePreemptionShowcase.host1.eth[0].macLayer.server incomingPackets:count 9668
attr recordingmode count
attr source packetPulled
attr title "incoming packets, count"
attr unit pk
scalar FramePreemptionShowcase.host1.eth[0].macLayer.server incomingPacketLengths:sum 95489344
attr interpolationmode none
attr recordingmode sum
attr source packetLength(packetPulled)
attr title "incoming packet lengths, sum"
attr unit b
statistic FramePreemptionShowcase.host1.eth[0].macLayer.server incomingPacketLengths:histogram
field count 9668
field mean 9876.8456764584
field stddev 882.80510615979
field min 1328
field max 9968
field sum 95489344
field sqrsum 950667441152
attr interpolationmode none
attr recordingmode histogram
attr source packetLength(packetPulled)
attr title "incoming packet lengths"
attr unit b
bin	-inf	0
bin	0	0
bin	200	0
bin	400	0
bin	600	0
bin	800	0
bin	1000	0
bin	1200	102
bin	1400	0
bin	1600	0
bin	1800	0
bin	2000	0
bin	2200	0
bin	2400	0
bin	2600	0
bin	2800	0
bin	3000	0
bin	3200	0
bin	3400	0
bin	3600	0
bin	3800	0
bin	4000	0
bin	4200	0
bin	4400	0
bin	4600	0
bin	4800	0
bin	5000	0
bin	5200	0
bin	5400	0
bin	5600	0
bin	5800	0
bin	6000	0
bin	6200	0
bin	6400	0
bin	6600	0
bin	6800	0
bin	7000	0
bin	7200	0
bin	7400	0
bin	7600	0
bin	7800	0
bin	8000	0
bin	8200	0
bin	8400	0
bin	8600	0
bin	8800	0
bin	9000	0
bin	9200	0
bin	9400	0
bin	9600	0
bin	9800	9566
bin	10000	0
bin	10200	0
bin	10400	0
bin	10600	0
bin	10800	0
bin	11000	0
bin	11200	0
bin	11400	0
bin	11600	0
bin	11800	0
bin	12000	0
bin	12200	0
scalar FramePreemptionShowcase.host1.eth[0].macLayer.server outgoingPackets:count 9668
attr recordingmode count
attr source packetPushed
attr title "outgoing packets, count"
attr unit pk
scalar FramePreemptionShowcase.host1.eth[0].macLayer.server outgoingPacketLengths:sum 95489344
attr interpolationmode none
attr recordingmode sum
attr source packetLength(packetPushed)
attr title "outgoing packet lengths, sum"
attr unit b
statistic FramePreemptionShowcase.host1.eth[0].macLayer.server outgoingPacketLengths:histogram
field count 9668
field mean 9876.8456764584
field stddev 882.80510615979
field min 1328
field max 9968
field sum 95489344
field sqrsum 950667441152
attr interpolationmode none
attr recordingmode histogram
attr source packetLength(packetPushed)
attr title "outgoing packet lengths"
attr unit b
bin	-inf	0
bin	0	0
bin	200	0
bin	400	0
bin	600	0
bin	800	0
bin	1000	0
bin	1200	102
bin	1400	0
bin	1600	0
bin	1800	0
bin	2000	0
bin	2200	0
bin	2400	0
bin	2600	0
bin	2800	0
bin	3000	0
bin	3200	0
bin	3400	0
bin	3600	0
bin	3800	0
bin	4000	0
bin	4200	0
bin	4400	0
bin	4600	0
bin	4800	0
bin	5000	0
bin	5200	0
bin	5400	0
bin	5600	0
bin	5800	0
bin	6000	0
bin	6200	0
bin	6400	0
bin	6600	0
bin	6800	0
bin	7000	0
bin	7200	0
bin	7400	0
bin	7600	0
bin	7800	0
bin	8000	0
bin	8200	0
bin	8400	0
bin	8600	0
bin	8800	0
bin	9000	0
bin	9200	0
bin	9400	0
bin	9600	0
bin	9800	9566
bin	10000	0
bin	10200	0
bin	10400	0
bin	10600	0
bin	10800	0
bin	11000	0
bin	11200	0
bin	11400	0
bin	11600	0
bin	11800	0
bin	12000	0
bin	12200	0
scalar FramePreemptionShowcase.host1.eth[0].macLayer.outboundEmitter outgoingPackets:count 9668
attr recordingmode count
attr source "merge(packetPushedOut, packetPulledOut)"
attr title "outgoing packets, count"
attr unit pk
scalar FramePreemptionShowcase.host1.eth[0].macLayer.outboundEmitter outgoingPacketLengths:sum 95489344
attr interpolationmode none
attr recordingmode sum
attr source "packetLength(merge(packetPushedOut, packetPulledOut))"
attr title "outgoing packet lengths, sum"
attr unit b
statistic FramePreemptionShowcase.host1.eth[0].macLayer.outboundEmitter outgoingPacketLengths:histogram
field count 9668
field mean 9876.8456764584
field stddev 882.80510615979
field min 1328
field max 9968
field sum 95489344
field sqrsum 950667441152
attr interpolationmode none
attr recordingmode histogram
attr source "packetLength(merge(packetPushedOut, packetPulledOut))"
attr title "outgoing packet lengths"
attr unit b
bin	-inf	0
bin	0	0
bin	200	0
bin	400	0
bin	600	0
bin	800	0
bin	1000	0
bin	1200	102
bin	1400	0
bin	1600	0
bin	1800	0
bin	2000	0
bin	2200	0
bin	2400	0
bin	2600	0
bin	2800	0
bin	3000	0
bin	3200	0
bin	3400	0
bin	3600	0
bin	3800	0
bin	4000	0
bin	4200	0
bin	4400	0
bin	4600	0
bin	4800	0
bin	5000	0
bin	5200	0
bin	5400	0
bin	5600	0
bin	5800	0
bin	6000	0
bin	6200	0
bin	6400	0
bin	6600	0
bin	6800	0
bin	7000	0
bin	7200	0
bin	7400	0
bin	7600	0
bin	7800	0
bin	8000	0
bin	8200	0
bin	8400	0
bin	8600	0
bin	8800	0
bin	9000	0
bin	9200	0
bin	9400	0
bin	9600	0
bin	9800	9566
bin	10000	0
bin	10200	0
bin	10400	0
bin	10600	0
bin	10800	0
bin	11000	0
bin	11200	0
bin	11400	0
bin	11600	0
bin	11800	0
bin	12000	0
bin	12200	0
scalar FramePreemptionShowcase.host1.eth[0].macLayer.outboundEmitter flowOutgoingPacketLengths:sum 0
attr interpolationmode none
attr recordingmode sum
attr source "packetLength(demuxFlow(merge(packetPushedOut, packetPulledOut)))"
attr title "flow specific outgoing packet lengths, sum"
attr unit b
statistic FramePreemptionShowcase.host1.eth[0].macLayer.outboundEmitter flowOutgoingPacketLengths:histogram
field count 0
field mean -nan
field stddev nan
field min nan
field max nan
field sum 0
field sqrsum 0
attr interpolationmode none
attr recordingmode histogram
attr source "packetLength(demuxFlow(merge(packetPushedOut, packetPulledOut)))"
attr title "flow specific outgoing packet lengths"
attr unit b
bin	-inf	0
bin	0	0
bin	1	0
scalar FramePreemptionShowcase.host1.eth[0].macLayer.outboundEmitter incomingPackets:count 9668
attr recordingmode count
attr source "merge(packetPushedIn, packetPulledIn)"
attr title "incoming packets, count"
attr unit pk
scalar FramePreemptionShowcase.host1.eth[0].macLayer.outboundEmitter incomingPacketLengths:sum 95489344
attr interpolationmode none
attr recordingmode sum
attr source "packetLength(merge(packetPushedIn, packetPulledIn))"
attr title "incoming packet lengths, sum"
attr unit b
statistic FramePreemptionShowcase.host1.eth[0].macLayer.outboundEmitter incomingPacketLengths:histogram
field count 9668
field mean 9876.8456764584
field stddev 882.80510615979
field min 1328
field max 9968
field sum 95489344
field sqrsum 950667441152
attr interpolationmode none
attr recordingmode histogram
attr source "packetLength(merge(packetPushedIn, packetPulledIn))"
attr title "incoming packet lengths"
attr unit b
bin	-inf	0
bin	0	0
bin	200	0
bin	400	0
bin	600	0
bin	800	0
bin	1000	0
bin	1200	102
bin	1400	0
bin	1600	0
bin	1800	0
bin	2000	0
bin	2200	0
bin	2400	0
bin	2600	0
bin	2800	0
bin	3000	0
bin	3200	0
bin	3400	0
bin	3600	0
bin	3800	0
bin	4000	0
bin	4200	0
bin	4400	0
bin	4600	0
bin	4800	0
bin	5000	0
bin	5200	0
bin	5400	0
bin	5600	0
bin	5800	0
bin	6000	0
bin	6200	0
bin	6400	0
bin	6600	0
bin	6800	0
bin	7000	0
bin	7200	0
bin	7400	0
bin	7600	0
bin	7800	0
bin	8000	0
bin	8200	0
bin	8400	0
bin	8600	0
bin	8800	0
bin	9000	0
bin	9200	0
bin	9400	0
bin	9600	0
bin	9800	9566
bin	10000	0
bin	10200	0
bin	10400	0
bin	10600	0
bin	10800	0
bin	11000	0
bin	11200	0
bin	11400	0
bin	11600	0
bin	11800	0
bin	12000	0
bin	12200	0
scalar FramePreemptionShowcase.host1.eth[0].macLayer.outboundEmitter flowIncomingPacketLengths:sum 0
attr interpolationmode none
attr recordingmode sum
attr source "packetLength(demuxFlow(merge(packetPushedIn, packetPulledIn)))"
attr title "flow specific incoming packet lengths, sum"
attr unit b
statistic FramePreemptionShowcase.host1.eth[0].macLayer.outboundEmitter flowIncomingPacketLengths:histogram
field count 0
field mean -nan
field stddev nan
field min nan
field max nan
field sum 0
field sqrsum 0
attr interpolationmode none
attr recordingmode histogram
attr source "packetLength(demuxFlow(merge(packetPushedIn, packetPulledIn)))"
attr title "flow specific incoming packet lengths"
attr unit b
bin	-inf	0
bin	0	0
bin	1	0
scalar FramePreemptionShowcase.host1.eth[0].macLayer.fcsChecker outgoingPackets:count 0
attr recordingmode count
attr source "merge(packetPushedOut, packetPulledOut)"
attr title "outgoing packets, count"
attr unit pk
scalar FramePreemptionShowcase.host1.eth[0].macLayer.fcsChecker outgoingPacketLengths:sum 0
attr interpolationmode none
attr recordingmode sum
attr source "packetLength(merge(packetPushedOut, packetPulledOut))"
attr title "outgoing packet lengths, sum"
attr unit b
statistic FramePreemptionShowcase.host1.eth[0].macLayer.fcsChecker outgoingPacketLengths:histogram
field count 0
field mean -nan
field stddev nan
field min nan
field max nan
field sum 0
field sqrsum 0
attr interpolationmode none
attr recordingmode histogram
attr source "packetLength(merge(packetPushedOut, packetPulledOut))"
attr title "outgoing packet lengths"
attr unit b
bin	-inf	0
bin	0	0
bin	1	0
scalar FramePreemptionShowcase.host1.eth[0].macLayer.fcsChecker flowOutgoingPacketLengths:sum 0
attr interpolationmode none
attr recordingmode sum
attr source "packetLength(demuxFlow(merge(packetPushedOut, packetPulledOut)))"
attr title "flow specific outgoing packet lengths, sum"
attr unit b
statistic FramePreemptionShowcase.host1.eth[0].macLayer.fcsChecker flowOutgoingPacketLengths:histogram
field count 0
field mean -nan
field stddev nan
field min nan
field max nan
field sum 0
field sqrsum 0
attr interpolationmode none
attr recordingmode histogram
attr source "packetLength(demuxFlow(merge(packetPushedOut, packetPulledOut)))"
attr title "flow specific outgoing packet lengths"
attr unit b
bin	-inf	0
bin	0	0
bin	1	0
scalar FramePreemptionShowcase.host1.eth[0].macLayer.fcsChecker incomingPackets:count 0
attr recordingmode count
attr source "merge(packetPushedIn, packetPulledIn)"
attr title "incoming packets, count"
attr unit pk
scalar FramePreemptionShowcase.host1.eth[0].macLayer.fcsChecker incomingPacketLengths:sum 0
attr interpolationmode none
attr recordingmode sum
attr source "packetLength(merge(packetPushedIn, packetPulledIn))"
attr title "incoming packet lengths, sum"
attr unit b
statistic FramePreemptionShowcase.host1.eth[0].macLayer.fcsChecker incomingPacketLengths:histogram
field count 0
field mean -nan
field stddev nan
field min nan
field max nan
field sum 0
field sqrsum 0
attr interpolationmode none
attr recordingmode histogram
attr source "packetLength(merge(packetPushedIn, packetPulledIn))"
attr title "incoming packet lengths"
attr unit b
bin	-inf	0
bin	0	0
bin	1	0
scalar FramePreemptionShowcase.host1.eth[0].macLayer.fcsChecker flowIncomingPacketLengths:sum 0
attr interpolationmode none
attr recordingmode sum
attr source "packetLength(demuxFlow(merge(packetPushedIn, packetPulledIn)))"
attr title "flow specific incoming packet lengths, sum"
attr unit b
statistic FramePreemptionShowcase.host1.eth[0].macLayer.fcsChecker flowIncomingPacketLengths:histogram
field count 0
field mean -nan
field stddev nan
field min nan
field max nan
field sum 0
field sqrsum 0
attr interpolationmode none
attr recordingmode histogram
attr source "packetLength(demuxFlow(merge(packetPushedIn, packetPulledIn)))"
attr title "flow specific incoming packet lengths"
attr unit b
bin	-inf	0
bin	0	0
bin	1	0
scalar FramePreemptionShowcase.host1.eth[0].macLayer.fcsChecker droppedPackets:count 0
attr recordingmode count
attr source packetDropped
attr title "dropped packets, count"
attr unit pk
scalar FramePreemptionShowcase.host1.eth[0].macLayer.fcsChecker droppedPacketLengths:sum 0
attr interpolationmode none
attr recordingmode sum
attr source packetLength(packetDropped)
attr title "dropped packet lengths, sum"
attr unit b
statistic FramePreemptionShowcase.host1.eth[0].macLayer.fcsChecker droppedPacketLengths:histogram
field count 0
field mean -nan
field stddev nan
field min nan
field max nan
field sum 0
field sqrsum 0
attr interpolationmode none
attr recordingmode histogram
attr source packetLength(packetDropped)
attr title "dropped packet lengths"
attr unit b
bin	-inf	0
bin	0	0
bin	1	0
scalar FramePreemptionShowcase.host1.eth[0].macLayer.fcsChecker flowDroppedPacketLengths:sum 0
attr interpolationmode none
attr recordingmode sum
attr source packetLength(demuxFlow(packetDropped))
attr title "flow specific dropped packet lengths, sum"
attr unit b
statistic FramePreemptionShowcase.host1.eth[0].macLayer.fcsChecker flowDroppedPacketLengths:histogram
field count 0
field mean -nan
field stddev nan
field min nan
field max nan
field sum 0
field sqrsum 0
attr interpolationmode none
attr recordingmode histogram
attr source packetLength(demuxFlow(packetDropped))
attr title "flow specific dropped packet lengths"
attr unit b
bin	-inf	0
bin	0	0
bin	1	0
scalar FramePreemptionShowcase.host1.eth[0].macLayer.inboundEmitter outgoingPackets:count 0
attr recordingmode count
attr source "merge(packetPushedOut, packetPulledOut)"
attr title "outgoing packets, count"
attr unit pk
scalar FramePreemptionShowcase.host1.eth[0].macLayer.inboundEmitter outgoingPacketLengths:sum 0
attr interpolationmode none
attr recordingmode sum
attr source "packetLength(merge(packetPushedOut, packetPulledOut))"
attr title "outgoing packet lengths, sum"
attr unit b
statistic FramePreemptionShowcase.host1.eth[0].macLayer.inboundEmitter outgoingPacketLengths:histogram
field count 0
field mean -nan
field stddev nan
field min nan
field max nan
field sum 0
field sqrsum 0
attr interpolationmode none
attr recordingmode histogram
attr source "packetLength(merge(packetPushedOut, packetPulledOut))"
attr title "outgoing packet lengths"
attr unit b
bin	-inf	0
bin	0	0
bin	1	0
scalar FramePreemptionShowcase.host1.eth[0].macLayer.inboundEmitter flowOutgoingPacketLengths:sum 0
attr interpolationmode none
attr recordingmode sum
attr source "packetLength(demuxFlow(merge(packetPushedOut, packetPulledOut)))"
attr title "flow specific outgoing packet lengths, sum"
attr unit b
statistic FramePreemptionShowcase.host1.eth[0].macLayer.inboundEmitter flowOutgoingPacketLengths:histogram
field count 0
field mean -nan
field stddev nan
field min nan
field max nan
field sum 0
field sqrsum 0
attr interpolationmode none
attr recordingmode histogram
attr source "packetLength(demuxFlow(merge(packetPushedOut, packetPulledOut)))"
attr title "flow specific outgoing packet lengths"
attr unit b
bin	-inf	0
bin	0	0
bin	1	0
scalar FramePreemptionShowcase.host1.eth[0].macLayer.inboundEmitter incomingPackets:count 0
attr recordingmode count
attr source "merge(packetPushedIn, packetPulledIn)"
attr title "incoming packets, count"
attr unit pk
scalar FramePreemptionShowcase.host1.eth[0].macLayer.inboundEmitter incomingPacketLengths:sum 0
attr interpolationmode none
attr recordingmode sum
attr source "packetLength(merge(packetPushedIn, packetPulledIn))"
attr title "incoming packet lengths, sum"
attr unit b
statistic FramePreemptionShowcase.host1.eth[0].macLayer.inboundEmitter incomingPacketLengths:histogram
field count 0
field mean -nan
field stddev nan
field min nan
field max nan
field sum 0
field sqrsum 0
attr interpolationmode none
attr recordingmode histogram
attr source "packetLength(merge(packetPushedIn, packetPulledIn))"
attr title "incoming packet lengths"
attr unit b
bin	-inf	0
bin	0	0
bin	1	0
scalar FramePreemptionShowcase.host1.eth[0].macLayer.inboundEmitter flowIncomingPacketLengths:sum 0
attr interpolationmode none
attr recordingmode sum
attr source "packetLength(demuxFlow(merge(packetPushedIn, packetPulledIn)))"
attr title "flow specific incoming packet lengths, sum"
attr unit b
statistic FramePreemptionShowcase.host1.eth[0].macLayer.inboundEmitter flowIncomingPacketLengths:histogram
field count 0
field mean -nan
field stddev nan
field min nan
field max nan
field sum 0
field sqrsum 0
attr interpolationmode none
attr recordingmode histogram
attr source "packetLength(demuxFlow(merge(packetPushedIn, packetPulledIn)))"
attr title "flow specific incoming packet lengths"
attr unit b
bin	-inf	0
bin	0	0
bin	1	0
scalar FramePreemptionShowcase.host1.eth[0].phyLayer.phyHeaderInserter outgoingPackets:count 9668
attr recordingmode count
attr source "merge(packetPushedOut, packetPulledOut)"
attr title "outgoing packets, count"
attr unit pk
scalar FramePreemptionShowcase.host1.eth[0].phyLayer.phyHeaderInserter outgoingPacketLengths:sum 96108096
attr interpolationmode none
attr recordingmode sum
attr source "packetLength(merge(packetPushedOut, packetPulledOut))"
attr title "outgoing packet lengths, sum"
attr unit b
statistic FramePreemptionShowcase.host1.eth[0].phyLayer.phyHeaderInserter outgoingPacketLengths:histogram
field count 9668
field mean 9940.8456764584
field stddev 882.80510615979
field min 1392
field max 10032
field sum 96108096
field sqrsum 962929677312
attr interpolationmode none
attr recordingmode histogram
attr source "packetLength(merge(packetPushedOut, packetPulledOut))"
attr title "outgoing packet lengths"
attr unit b
bin	-inf	0
bin	0	0
bin	200	0
bin	400	0
bin	600	0
bin	800	0
bin	1000	0
bin	1200	102
bin	1400	0
bin	1600	0
bin	1800	0
bin	2000	0
bin	2200	0
bin	2400	0
bin	2600	0
bin	2800	0
bin	3000	0
bin	3200	0
bin	3400	0
bin	3600	0
bin	3800	0
bin	4000	0
bin	4200	0
bin	4400	0
bin	4600	0
bin	4800	0
bin	5000	0
bin	5200	0
bin	5400	0
bin	5600	0
bin	5800	0
bin	6000	0
bin	6200	0
bin	6400	0
bin	6600	0
bin	6800	0
bin	7000	0
bin	7200	0
bin	7400	0
bin	7600	0
bin	7800	0
bin	8000	0
bin	8200	0
bin	8400	0
bin	8600	0
bin	8800	0
bin	9000	0
bin	9200	0
bin	9400	0
bin	9600	0
bin	9800	0
bin	10000	9566
bin	10200	0
bin	10400	0
bin	10600	0
bin	10800	0
bin	11000	0
bin	11200	0
bin	11400	0
bin	11600	0
bin	11800	0
bin	12000	0
bin	12200	0
scalar FramePreemptionShowcase.host1.eth[0].phyLayer.phyHeaderInserter flowOutgoingPacketLengths:sum 0
attr interpolationmode none
attr recordingmode sum
attr source "packetLength(demuxFlow(merge(packetPushedOut, packetPulledOut)))"
attr title "flow specific outgoing packet lengths, sum"
attr unit b
statistic FramePreemptionShowcase.host1.eth[0].phyLayer.phyHeaderInserter flowOutgoingPacketLengths:histogram
field count 0
field mean -nan
field stddev nan
field min nan
field max nan
field sum 0
field sqrsum 0
attr interpolationmode none
attr recordingmode histogram
attr source "packetLength(demuxFlow(merge(packetPushedOut, packetPulledOut)))"
attr title "flow specific outgoing packet lengths"
attr unit b
bin	-inf	0
bin	0	0
bin	1	0
scalar FramePreemptionShowcase.host1.eth[0].phyLayer.phyHeaderInserter incomingPackets:count 9668
attr recordingmode count
attr source "merge(packetPushedIn, packetPulledIn)"
attr title "incoming packets, count"
attr unit pk
scalar FramePreemptionShowcase.host1.eth[0].phyLayer.phyHeaderInserter incomingPacketLengths:sum 95489344
attr interpolationmode none
attr recordingmode sum
attr source "packetLength(merge(packetPushedIn, packetPulledIn))"
attr title "incoming packet lengths, sum"
attr unit b
statistic FramePreemptionShowcase.host1.eth[0].phyLayer.phyHeaderInserter incomingPacketLengths:histogram
field count 9668
field mean 9876.8456764584
field stddev 882.80510615979
field min 1328
field max 9968
field sum 95489344
field sqrsum 950667441152
attr interpolationmode none
attr recordingmode histogram
attr source "packetLength(merge(packetPushedIn, packetPulledIn))"
attr title "incoming packet lengths"
attr unit b
bin	-inf	0
bin	0	0
bin	200	0
bin	400	0
bin	600	0
bin	800	0
bin	1000	0
bin	1200	102
bin	1400	0
bin	1600	0
bin	1800	0
bin	2000	0
bin	2200	0
bin	2400	0
bin	2600	0
bin	2800	0
bin	3000	0
bin	3200	0
bin	3400	0
bin	3600	0
bin	3800	0
bin	4000	0
bin	4200	0
bin	4400	0
bin	4600	0
bin	4800	0
bin	5000	0
bin	5200	0
bin	5400	0
bin	5600	0
bin	5800	0
bin	6000	0
bin	6200	0
bin	6400	0
bin	6600	0
bin	6800	0
bin	7000	0
bin	7200	0
bin	7400	0
bin	7600	0
bin	7800	0
bin	8000	0
bin	8200	0
bin	8400	0
bin	8600	0
bin	8800	0
bin	9000	0
bin	9200	0
bin	9400	0
bin	9600	0
bin	9800	9566
bin	10000	0
bin	10200	0
bin	10400	0
bin	10600	0
bin	10800	0
bin	11000	0
bin	11200	0
bin	11400	0
bin	11600	0
bin	11800	0
bin	12000	0
bin	12200	0
scalar FramePreemptionShowcase.host1.eth[0].phyLayer.phyHeaderInserter flowIncomingPacketLengths:sum 0
attr interpolationmode none
attr recordingmode sum
attr source "packetLength(demuxFlow(merge(packetPushedIn, packetPulledIn)))"
attr title "flow specific incoming packet lengths, sum"
attr unit b
statistic FramePreemptionShowcase.host1.eth[0].phyLayer.phyHeaderInserter flowIncomingPacketLengths:histogram
field count 0
field mean -nan
field stddev nan
field min nan
field max nan
field sum 0
field sqrsum 0
attr interpolationmode none
attr recordingmode histogram
attr source "packetLength(demuxFlow(merge(packetPushedIn, packetPulledIn)))"
attr title "flow specific incoming packet lengths"
attr unit b
bin	-inf	0
bin	0	0
bin	1	0
scalar FramePreemptionShowcase.host1.eth[0].phyLayer.outboundEmitter outgoingPackets:count 9668
attr recordingmode count
attr source "merge(packetPushedOut, packetPulledOut)"
attr title "outgoing packets, count"
attr unit pk
scalar FramePreemptionShowcase.host1.eth[0].phyLayer.outboundEmitter outgoingPacketLengths:sum 96108096
attr interpolationmode none
attr recordingmode sum
attr source "packetLength(merge(packetPushedOut, packetPulledOut))"
attr title "outgoing packet lengths, sum"
attr unit b
statistic FramePreemptionShowcase.host1.eth[0].phyLayer.outboundEmitter outgoingPacketLengths:histogram
field count 9668
field mean 9940.8456764584
field stddev 882.80510615979
field min 1392
field max 10032
field sum 96108096
field sqrsum 962929677312
attr interpolationmode none
attr recordingmode histogram
attr source "packetLength(merge(packetPushedOut, packetPulledOut))"
attr title "outgoing packet lengths"
attr unit b
bin	-inf	0
bin	0	0
bin	200	0
bin	400	0
bin	600	0
bin	800	0
bin	1000	0
bin	1200	102
bin	1400	0
bin	1600	0
bin	1800	0
bin	2000	0
bin	2200	0
bin	2400	0
bin	2600	0
bin	2800	0
bin	3000	0
bin	3200	0
bin	3400	0
bin	3600	0
bin	3800	0
bin	4000	0
bin	4200	0
bin	4400	0
bin	4600	0
bin	4800	0
bin	5000	0
bin	5200	0
bin	5400	0
bin	5600	0
bin	5800	0
bin	6000	0
bin	6200	0
bin	6400	0
bin	6600	0
bin	6800	0
bin	7000	0
bin	7200	0
bin	7400	0
bin	7600	0
bin	7800	0
bin	8000	0
bin	8200	0
bin	8400	0
bin	8600	0
bin	8800	0
bin	9000	0
bin	9200	0
bin	9400	0
bin	9600	0
bin	9800	0
bin	10000	9566
bin	10200	0
bin	10400	0
bin	10600	0
bin	10800	0
bin	11000	0
bin	11200	0
bin	11400	0
bin	11600	0
bin	11800	0
bin	12000	0
bin	12200	0
scalar FramePreemptionShowcase.host1.eth[0].phyLayer.outboundEmitter flowOutgoingPacketLengths:sum 0
attr interpolationmode none
attr recordingmode sum
attr source "packetLength(demuxFlow(merge(packetPushedOut, packetPulledOut)))"
attr title "flow specific outgoing packet lengths, sum"
attr unit b
statistic FramePreemptionShowcase.host1.eth[0].phyLayer.outboundEmitter flowOutgoingPacketLengths:histogram
field count 0
field mean -nan
field stddev nan
field min nan
field max nan
field sum 0
field sqrsum 0
attr interpolationmode none
attr recordingmode histogram
attr source "packetLength(demuxFlow(merge(packetPushedOut, packetPulledOut)))"
attr title "flow specific outgoing packet lengths"
attr unit b
bin	-inf	0
bin	0	0
bin	1	0
scalar FramePreemptionShowcase.host1.eth[0].phyLayer.outboundEmitter incomingPackets:count 9668
attr recordingmode count
attr source "merge(packetPushedIn, packetPulledIn)"
attr title "incoming packets, count"
attr unit pk
scalar FramePreemptionShowcase.host1.eth[0].phyLayer.outboundEmitter incomingPacketLengths:sum 96108096
attr interpolationmode none
attr recordingmode sum
attr source "packetLength(merge(packetPushedIn, packetPulledIn))"
attr title "incoming packet lengths, sum"
attr unit b
statistic FramePreemptionShowcase.host1.eth[0].phyLayer.outboundEmitter incomingPacketLengths:histogram
field count 9668
field mean 9940.8456764584
field stddev 882.80510615979
field min 1392
field max 10032
field sum 96108096
field sqrsum 962929677312
attr interpolationmode none
attr recordingmode histogram
attr source "packetLength(merge(packetPushedIn, packetPulledIn))"
attr title "incoming packet lengths"
attr unit b
bin	-inf	0
bin	0	0
bin	200	0
bin	400	0
bin	600	0
bin	800	0
bin	1000	0
bin	1200	102
bin	1400	0
bin	1600	0
bin	1800	0
bin	2000	0
bin	2200	0
bin	2400	0
bin	2600	0
bin	2800	0
bin	3000	0
bin	3200	0
bin	3400	0
bin	3600	0
bin	3800	0
bin	4000	0
bin	4200	0
bin	4400	0
bin	4600	0
bin	4800	0
bin	5000	0
bin	5200	0
bin	5400	0
bin	5600	0
bin	5800	0
bin	6000	0
bin	6200	0
bin	6400	0
bin	6600	0
bin	6800	0
bin	7000	0
bin	7200	0
bin	7400	0
bin	7600	0
bin	7800	0
bin	8000	0
bin	8200	0
bin	8400	0
bin	8600	0
bin	8800	0
bin	9000	0
bin	9200	0
bin	9400	0
bin	9600	0
bin	9800	0
bin	10000	9566
bin	10200	0
bin	10400	0
bin	10600	0
bin	10800	0
bin	11000	0
bin	11200	0
bin	11400	0
bin	11600	0
bin	11800	0
bin	12000	0
bin	12200	0
scalar FramePreemptionShowcase.host1.eth[0].phyLayer.outboundEmitter flowIncomingPacketLengths:sum 0
attr interpolationmode none
attr recordingmode sum
attr source "packetLength(demuxFlow(merge(packetPushedIn, packetPulledIn)))"
attr title "flow specific incoming packet lengths, sum"
attr unit b
statistic FramePreemptionShowcase.host1.eth[0].phyLayer.outboundEmitter flowIncomingPacketLengths:histogram
field count 0
field mean -nan
field stddev nan
field min nan
field max nan
field sum 0
field sqrsum 0
attr interpolationmode none
attr recordingmode histogram
attr source "packetLength(demuxFlow(merge(packetPushedIn, packetPulledIn)))"
attr title "flow specific incoming packet lengths"
attr unit b
bin	-inf	0
bin	0	0
bin	1	0
scalar FramePreemptionShowcase.host1.eth[0].phyLayer.transmitter propagationTime 5e-08
statistic FramePreemptionShowcase.host1.eth[0].phyLayer.transmitter throughput:histogram
field count 97
field mean 96159504.386807
field stddev 2434802.8113532
field min 89966221.087024
field max 99052132.701422
field sum 9327471925.5203
field sqrsum 8.9749419095398e+17
attr interpolationmode linear
attr recordingmode histogram
attr source throughput(transmissionEnded)
attr title throughput
attr unit bps
bin	-inf	0
bin	87600000	0
bin	87800000	0
bin	88000000	0
bin	88200000	0
bin	88400000	0
bin	88600000	0
bin	88800000	0
bin	89000000	0
bin	89200000	0
bin	89400000	0
bin	89600000	0
bin	89800000	1
bin	90000000	0
bin	90200000	1
bin	90400000	0
bin	90600000	0
bin	90800000	0
bin	91000000	1
bin	91200000	0
bin	91400000	1
bin	91600000	3
bin	91800000	0
bin	92000000	3
bin	92200000	2
bin	92400000	0
bin	92600000	0
bin	92800000	0
bin	93000000	0
bin	93200000	3
bin	93400000	0
bin	93600000	2
bin	93800000	0
bin	94000000	3
bin	94200000	0
bin	94400000	3
bin	94600000	1
bin	94800000	4
bin	95000000	3
bin	95200000	2
bin	95400000	6
bin	95600000	2
bin	95800000	4
bin	96000000	2
bin	96200000	1
bin	96400000	3
bin	96600000	2
bin	96800000	4
bin	97000000	3
bin	97200000	1
bin	97400000	1
bin	97600000	2
bin	97800000	2
bin	98000000	2
bin	98200000	6
bin	98400000	1
bin	98600000	3
bin	98800000	5
bin	99000000	14
bin	99200000	0
bin	99400000	0
bin	99600000	0
bin	99800000	0
bin	100000000	0
bin	100200000	0
bin	100400000	0
bin	100600000	0
bin	100800000	0
bin	101000000	0
bin	101200000	0
bin	101400000	0
statistic FramePreemptionShowcase.host1.eth[0].phyLayer.transmitter utilization:histogram
field count 97
field mean 96.171990562937
field stddev 2.4133916267319
field min 89.966221087024
field max 99.052132701422
field sum 9328.6830846049
field sqrsum 897717.16965508
attr interpolationmode linear
attr recordingmode histogram
attr source "100 * utilization(count(transmissionStarted) - count(transmissionEnded))"
attr title utilization
attr unit %
bin	-inf	0
bin	87.6	0
bin	87.8	0
bin	88	0
bin	88.2	0
bin	88.4	0
bin	88.6	0
bin	88.8	0
bin	89	0
bin	89.2	0
bin	89.4	0
bin	89.6	0
bin	89.8	1
bin	90	0
bin	90.2	1
bin	90.4	0
bin	90.6	0
bin	90.8	0
bin	91	1
bin	91.2	0
bin	91.4	1
bin	91.6	2
bin	91.8	1
bin	92	2
bin	92.2	2
bin	92.4	1
bin	92.6	0
bin	92.8	0
bin	93	0
bin	93.2	3
bin	93.4	0
bin	93.6	2
bin	93.8	0
bin	94	3
bin	94.2	0
bin	94.4	3
bin	94.6	1
bin	94.8	5
bin	95	2
bin	95.2	2
bin	95.4	6
bin	95.6	1
bin	95.8	4
bin	96	3
bin	96.2	1
bin	96.4	1
bin	96.6	2
bin	96.8	4
bin	97	4
bin	97.2	2
bin	97.4	1
bin	97.6	2
bin	97.8	2
bin	98	3
bin	98.2	6
bin	98.4	1
bin	98.6	4
bin	98.8	4
bin	99	13
bin	99.2	0
bin	99.4	0
bin	99.6	0
bin	99.8	0
bin	100	0
bin	100.2	0
bin	100.4	0
bin	100.6	0
bin	100.8	0
bin	101	0
bin	101.2	0
bin	101.4	0
statistic FramePreemptionShowcase.host1.eth[0].phyLayer.transmitter transmissionTime:histogram
field count 9667
field mean 9.9408362470275e-05
field stddev 8.828502835548e-06
field min 1.392e-05
field max 0.00010032
field sum 0.96098064000015
field sqrsum 9.628290362881e-05
attr interpolationmode none
attr recordingmode histogram
attr source packetDuration(transmissionEnded)
attr title "transmission time"
attr unit s
bin	-inf	0
bin	0	0
bin	2e-06	0
bin	4e-06	0
bin	6e-06	0
bin	8e-06	0
bin	1e-05	0
bin	1.2e-05	102
bin	1.4e-05	0
bin	1.6e-05	0
bin	1.8e-05	0
bin	2e-05	0
bin	2.2e-05	0
bin	2.4e-05	0
bin	2.6e-05	0
bin	2.8e-05	0
bin	3e-05	0
bin	3.2e-05	0
bin	3.4e-05	0
bin	3.6e-05	0
bin	3.8e-05	0
bin	4e-05	0
bin	4.2e-05	0
bin	4.4e-05	0
bin	4.6e-05	0
bin	4.8e-05	0
bin	5e-05	0
bin	5.2e-05	0
bin	5.4e-05	0
bin	5.6e-05	0
bin	5.8e-05	0
bin	6e-05	0
bin	6.2e-05	0
bin	6.4e-05	0
bin	6.6e-05	0
bin	6.8e-05	0
bin	7e-05	0
bin	7.2e-05	0
bin	7.4e-05	0
[...]
attr source packetDropReasonIsNoInterfaceFound(packetDropped)
attr title "packet drop: no interface found, count"
scalar FramePreemptionShowcase.host2.ipv4.ip packetDropNoInterfaceFound:sum(packetBytes) 0
attr interpolationmode none
attr recordingmode sum(packetBytes)
attr source packetDropReasonIsNoInterfaceFound(packetDropped)
attr title "packet drop: no interface found, sum(packetBytes)"
scalar FramePreemptionShowcase.host2.ipv4.ip packetDropNoRouteFound:count 0
attr interpolationmode none
attr recordingmode count
attr source packetDropReasonIsNoRouteFound(packetDropped)
attr title "packet drop: no route found, count"
scalar FramePreemptionShowcase.host2.ipv4.ip packetDropNoRouteFound:sum(packetBytes) 0
attr interpolationmode none
attr recordingmode sum(packetBytes)
attr source packetDropReasonIsNoRouteFound(packetDropped)
attr title "packet drop: no route found, sum(packetBytes)"
scalar FramePreemptionShowcase.host2.ipv4.ip packetDropUndefined:count 0
attr interpolationmode none
attr recordingmode count
attr source packetDropReasonIsUndefined(packetDropped)
attr title "packet drop: undefined, count"
scalar FramePreemptionShowcase.host2.ipv4.ip packetDropUndefined:sum(packetBytes) 0
attr interpolationmode none
attr recordingmode sum(packetBytes)
attr source packetDropReasonIsUndefined(packetDropped)
attr title "packet drop: undefined, sum(packetBytes)"
scalar FramePreemptionShowcase.host2.udp packetReceived:count 9667
attr interpolationmode none
attr recordingmode count
attr source packetReceived
attr title "packets received, count"
scalar FramePreemptionShowcase.host2.udp packetReceived:sum(packetBytes) 11567576
attr interpolationmode none
attr recordingmode sum(packetBytes)
attr source packetReceived
attr title "packets received, sum(packetBytes)"
scalar FramePreemptionShowcase.host2.udp packetSent:count 0
attr interpolationmode none
attr recordingmode count
attr source packetSent
attr title "packets sent, count"
scalar FramePreemptionShowcase.host2.udp packetSent:sum(packetBytes) 0
attr interpolationmode none
attr recordingmode sum(packetBytes)
attr source packetSent
attr title "packets sent, sum(packetBytes)"
scalar FramePreemptionShowcase.host2.udp passedUpPk:count 9667
attr interpolationmode none
attr recordingmode count
attr source packetSentToUpper
attr title "packets passed up, count"
scalar FramePreemptionShowcase.host2.udp droppedPkWrongPort:count 0
attr interpolationmode none
attr recordingmode count
attr source packetDropReasonIsNoPortFound(packetDropped)
attr title "packets dropped (wrong port), count"
scalar FramePreemptionShowcase.host2.udp droppedPkBadChecksum:count 0
attr interpolationmode none
attr recordingmode count
attr source packetDropReasonIsIncorrectlyReceived(packetDropped)
attr title "packets dropped (checksum error), count"
scalar FramePreemptionShowcase.host2.app[0].sink packets:count 9565
attr recordingmode count
attr source packetPushed
attr title "packets, count"
attr unit pk
scalar FramePreemptionShowcase.host2.app[0].sink packetLengths:sum 91824000
attr interpolationmode none
attr recordingmode sum
attr source packetLength(packetPushed)
attr title "packet lengths, sum"
attr unit b
statistic FramePreemptionShowcase.host2.app[0].sink packetLengths:histogram
field count 9565
field mean 9600
field stddev 0
field min 9600
field max 9600
field sum 91824000
field sqrsum 881510400000
attr interpolationmode none
attr recordingmode histogram
attr source packetLength(packetPushed)
attr title "packet lengths"
attr unit b
bin	-inf	0
bin	9599	0
bin	9600	9565
bin	9601	0
statistic FramePreemptionShowcase.host2.app[0].sink meanBitLifeTimePerPacket:histogram
field count 9565
field mean 0.00026623845766283
field stddev 0.00011393598549016
field min 0.00010037
field max 0.000512334164
field sum 2.546570847545
field sqrsum 0.00080214928844339
attr interpolationmode none
attr recordingmode histogram
attr source weightedMeanPerGroup(groupRegionsPerPacket(lifeTimePerRegion(packetPushed)))
attr title "mean bit life time per packet"
attr unit s
bin	-inf	0
bin	0	0
bin	1e-05	0
bin	2e-05	0
bin	3e-05	0
bin	4e-05	0
bin	5e-05	0
bin	6e-05	0
bin	7e-05	0
bin	8e-05	0
bin	9e-05	0
bin	0.0001	1069
bin	0.00011	228
bin	0.00012	220
bin	0.00013	229
bin	0.00014	226
bin	0.00015	230
bin	0.00016	245
bin	0.00017	270
bin	0.00018	253
bin	0.00019	250
bin	0.0002	256
bin	0.00021	224
bin	0.00022	250
bin	0.00023	255
bin	0.00024	229
bin	0.00025	280
bin	0.00026	276
bin	0.00027	269
bin	0.00028	246
bin	0.00029	256
bin	0.0003	240
bin	0.00031	235
bin	0.00032	256
bin	0.00033	239
bin	0.00034	255
bin	0.00035	243
bin	0.00036	220
bin	0.00037	197
bin	0.00038	237
bin	0.00039	215
bin	0.0004	220
bin	0.00041	200
bin	0.00042	178
bin	0.00043	143
bin	0.00044	128
bin	0.00045	156
bin	0.00046	136
bin	0.00047	115
bin	0.00048	78
bin	0.00049	68
bin	0.0005	44
bin	0.00051	1
bin	0.00052	0
bin	0.00053	0
bin	0.00054	0
bin	0.00055	0
bin	0.00056	0
bin	0.00057	0
bin	0.00058	0
bin	0.00059	0
bin	0.0006	0
bin	0.00061	0
statistic FramePreemptionShowcase.host2.app[0].sink packetJitter:histogram
field count 9565
field mean 2.5738501829587e-08
field stddev 4.468348791317e-05
field min -0.00018801119
field max 0.00011025
field sum 0.00024618877
field sqrsum 1.9095623513244e-05
attr interpolationmode none
attr recordingmode histogram
attr source jitter(weightedMeanPerGroup(groupRegionsPerPacket(lifeTimePerRegion(packetPushed))))
attr title "packet jitter"
attr unit s
bin	-inf	0
bin	-0.00019	1
bin	-0.000185	0
bin	-0.00018	1
bin	-0.000175	2
bin	-0.00017	0
bin	-0.000165	1
bin	-0.00016	3
bin	-0.000155	4
bin	-0.00015	3
bin	-0.000145	7
bin	-0.00014	3
bin	-0.000135	8
bin	-0.00013	12
bin	-0.000125	20
bin	-0.00012	23
bin	-0.000115	24
bin	-0.00011	40
bin	-0.000105	41
bin	-0.0001	52
bin	-9.5e-05	55
bin	-9e-05	62
bin	-8.5e-05	65
bin	-8e-05	95
bin	-7.5e-05	108
bin	-7e-05	117
bin	-6.5e-05	162
bin	-6e-05	168
bin	-5.5e-05	199
bin	-5e-05	220
bin	-4.5e-05	240
bin	-4e-05	233
bin	-3.5e-05	293
bin	-3e-05	334
bin	-2.5e-05	335
bin	-2e-05	324
bin	-1.5e-05	381
bin	-1e-05	379
bin	-5e-06	427
bin	0	831
bin	5e-06	421
bin	1e-05	403
bin	1.5e-05	370
bin	2e-05	346
bin	2.5e-05	344
bin	3e-05	276
bin	3.5e-05	302
bin	4e-05	305
bin	4.5e-05	239
bin	5e-05	221
bin	5.5e-05	192
bin	6e-05	158
bin	6.5e-05	157
bin	7e-05	124
bin	7.5e-05	122
bin	8e-05	92
bin	8.5e-05	86
bin	9e-05	70
bin	9.5e-05	51
bin	0.0001	11
bin	0.000105	1
bin	0.00011	1
bin	0.000115	0
bin	0.00012	0
bin	0.000125	0
bin	0.00013	0
bin	0.000135	0
bin	0.00014	0
bin	0.000145	0
bin	0.00015	0
bin	0.000155	0
bin	0.00016	0
bin	0.000165	0
statistic FramePreemptionShowcase.host2.app[0].sink packetDelayDifferenceToMean:histogram
field count 9565
field mean -7.6070772789545e-06
field stddev 0.00011364472315936
field min -0.00027610621018519
field max 0.0001741994970898
field sum -0.072761694173199
field sqrsum 0.00012407374117773
attr interpolationmode none
attr recordingmode histogram
attr source differenceToMean(weightedMeanPerGroup(groupRegionsPerPacket(lifeTimePerRegion(packetPushed))))
attr title "packet delay difference to mean"
attr unit s
bin	-inf	0
bin	-0.00039	0
bin	-0.00038	0
bin	-0.00037	0
bin	-0.00036	0
bin	-0.00035	0
bin	-0.00034	0
bin	-0.00033	0
bin	-0.00032	0
bin	-0.00031	0
bin	-0.0003	0
bin	-0.00029	0
bin	-0.00028	1
bin	-0.00027	1
bin	-0.00026	13
bin	-0.00025	32
bin	-0.00024	65
bin	-0.00023	95
bin	-0.00022	100
bin	-0.00021	157
bin	-0.0002	134
bin	-0.00019	138
bin	-0.00018	147
bin	-0.00017	184
bin	-0.00016	213
bin	-0.00015	217
bin	-0.00014	206
bin	-0.00013	218
bin	-0.00012	213
bin	-0.00011	222
bin	-0.0001	249
bin	-9e-05	245
bin	-8e-05	255
bin	-7e-05	249
bin	-6e-05	231
bin	-5e-05	269
bin	-4e-05	225
bin	-3e-05	259
bin	-2e-05	268
bin	-1e-05	280
bin	0	298
bin	1e-05	241
bin	2e-05	231
bin	3e-05	250
bin	4e-05	261
bin	5e-05	238
bin	6e-05	228
bin	7e-05	266
bin	8e-05	249
bin	9e-05	268
bin	0.0001	224
bin	0.00011	226
bin	0.00012	225
bin	0.00013	223
bin	0.00014	239
bin	0.00015	582
bin	0.00016	421
bin	0.00017	9
bin	0.00018	0
bin	0.00019	0
bin	0.0002	0
bin	0.00021	0
bin	0.00022	0
bin	0.00023	0
bin	0.00024	0
bin	0.00025	0
bin	0.00026	0
statistic FramePreemptionShowcase.host2.app[0].sink packetDelayVariation:histogram
field count 9565
field mean 0.00011344484949691
field stddev 5.8865568459533e-06
field min 0
field max 0.00012163014704005
field sum 1.0850999854379
field sqrsum 0.00012343041197566
attr recordingmode histogram
attr source stddev(weightedMeanPerGroup(groupRegionsPerPacket(lifeTimePerRegion(packetPushed))))
attr title "packet delay variation"
attr unit s
bin	-inf	0
bin	0	1
bin	2e-06	0
bin	4e-06	3
bin	6e-06	0
bin	8e-06	0
bin	1e-05	0
bin	1.2e-05	0
bin	1.4e-05	1
bin	1.6e-05	0
bin	1.8e-05	0
bin	2e-05	0
bin	2.2e-05	0
bin	2.4e-05	0
bin	2.6e-05	0
bin	2.8e-05	0
bin	3e-05	0
bin	3.2e-05	0
bin	3.4e-05	1
bin	3.6e-05	0
bin	3.8e-05	2
bin	4e-05	2
bin	4.2e-05	2
bin	4.4e-05	0
bin	4.6e-05	0
bin	4.8e-05	0
bin	5e-05	3
bin	5.2e-05	6
bin	5.4e-05	4
bin	5.6e-05	0
bin	5.8e-05	12
bin	6e-05	5
bin	6.2e-05	8
bin	6.4e-05	6
bin	6.6e-05	5
bin	6.8e-05	2
bin	7e-05	27
bin	7.2e-05	10
bin	7.4e-05	1
bin	7.6e-05	1
bin	7.8e-05	1
bin	8e-05	1
bin	8.2e-05	2
bin	8.4e-05	0
bin	8.6e-05	1
bin	8.8e-05	1
bin	9e-05	2
bin	9.2e-05	3
bin	9.4e-05	3
bin	9.6e-05	1
bin	9.8e-05	1
bin	0.0001	1
bin	0.000102	2
bin	0.000104	1
bin	0.000106	1
bin	0.000108	4
bin	0.00011	233
bin	0.000112	4428
bin	0.000114	4620
bin	0.000116	59
bin	0.000118	78
bin	0.00012	20
bin	0.000122	0
bin	0.000124	0
bin	0.000126	0
bin	0.000128	0
bin	0.00013	0
bin	0.000132	0
bin	0.000134	0
bin	0.000136	0
bin	0.000138	0
bin	0.00014	0
bin	0.000142	0
bin	0.000144	0
bin	0.000146	0
bin	0.000148	0
bin	0.00015	0
bin	0.000152	0
scalar FramePreemptionShowcase.host2.app[0].sink droppedPackets:count 9565
attr recordingmode count
attr source packetDropped
attr title "dropped packets, count"
attr unit pk
scalar FramePreemptionShowcase.host2.app[0].sink droppedPacketLengths:sum 91824000
attr interpolationmode none
attr recordingmode sum
attr source packetLength(packetDropped)
attr title "dropped packet lengths, sum"
attr unit b
statistic FramePreemptionShowcase.host2.app[0].sink droppedPacketLengths:histogram
field count 9565
field mean 9600
field stddev 0
field min 9600
field max 9600
field sum 91824000
field sqrsum 881510400000
attr interpolationmode none
attr recordingmode histogram
attr source packetLength(packetDropped)
attr title "dropped packet lengths"
attr unit b
bin	-inf	0
bin	9599	0
bin	9600	9565
bin	9601	0
scalar FramePreemptionShowcase.host2.app[0].io "packets sent" 0
scalar FramePreemptionShowcase.host2.app[0].io "packets received" 9565
scalar FramePreemptionShowcase.host2.app[0].io packetReceived:count 9565
attr interpolationmode none
attr recordingmode count
attr source packetReceived
attr title "packets received, count"
scalar FramePreemptionShowcase.host2.app[0].io packetReceived:sum(packetBytes) 11478000
attr interpolationmode none
attr recordingmode sum(packetBytes)
attr source packetReceived
attr title "packets received, sum(packetBytes)"
scalar FramePreemptionShowcase.host2.app[0].io packetSent:count 0
attr interpolationmode none
attr recordingmode count
attr source packetSent
attr title "packets sent, count"
scalar FramePreemptionShowcase.host2.app[0].io packetSent:sum(packetBytes) 0
attr interpolationmode none
attr recordingmode sum(packetBytes)
attr source packetSent
attr title "packets sent, sum(packetBytes)"
scalar FramePreemptionShowcase.host2.app[1].sink packets:count 102
attr recordingmode count
attr source packetPushed
attr title "packets, count"
attr unit pk
scalar FramePreemptionShowcase.host2.app[1].sink packetLengths:sum 97920
attr interpolationmode none
attr recordingmode sum
attr source packetLength(packetPushed)
attr title "packet lengths, sum"
attr unit b
statistic FramePreemptionShowcase.host2.app[1].sink packetLengths:histogram
field count 102
field mean 960
field stddev 0
field min 960
field max 960
field sum 97920
field sqrsum 94003200
attr interpolationmode none
attr recordingmode histogram
attr source packetLength(packetPushed)
attr title "packet lengths"
attr unit b
bin	-inf	0
bin	959	0
bin	960	102
bin	961	0
statistic FramePreemptionShowcase.host2.app[1].sink meanBitLifeTimePerPacket:histogram
field count 102
field mean 6.3298365931373e-05
field stddev 3.1971146055077e-05
field min 1.397e-05
field max 0.000114969057
field sum 0.006456433325
field sqrsum 5.1191925140494e-07
attr interpolationmode none
attr recordingmode histogram
attr source weightedMeanPerGroup(groupRegionsPerPacket(lifeTimePerRegion(packetPushed)))
attr title "mean bit life time per packet"
attr unit s
bin	-inf	0
bin	0	0
bin	2e-06	0
bin	4e-06	0
bin	6e-06	0
bin	8e-06	0
bin	1e-05	0
bin	1.2e-05	3
bin	1.4e-05	4
bin	1.6e-05	3
bin	1.8e-05	1
bin	2e-05	0
bin	2.2e-05	2
bin	2.4e-05	4
bin	2.6e-05	2
bin	2.8e-05	4
bin	3e-05	1
bin	3.2e-05	2
bin	3.4e-05	2
bin	3.6e-05	0
bin	3.8e-05	5
bin	4e-05	0
bin	4.2e-05	1
bin	4.4e-05	3
bin	4.6e-05	1
bin	4.8e-05	1
bin	5e-05	2
bin	5.2e-05	2
bin	5.4e-05	0
bin	5.6e-05	2
bin	5.8e-05	3
bin	6e-05	4
bin	6.2e-05	1
bin	6.4e-05	0
bin	6.6e-05	2
bin	6.8e-05	3
bin	7e-05	1
bin	7.2e-05	2
bin	7.4e-05	3
bin	7.6e-05	0
bin	7.8e-05	1
bin	8e-05	1
bin	8.2e-05	2
bin	8.4e-05	1
bin	8.6e-05	3
bin	8.8e-05	1
bin	9e-05	3
bin	9.2e-05	3
bin	9.4e-05	0
bin	9.6e-05	4
bin	9.8e-05	0
bin	0.0001	1
bin	0.000102	3
bin	0.000104	3
bin	0.000106	2
bin	0.000108	6
bin	0.00011	1
bin	0.000112	2
bin	0.000114	1
bin	0.000116	0
bin	0.000118	0
bin	0.00012	0
bin	0.000122	0
bin	0.000124	0
bin	0.000126	0
bin	0.000128	0
bin	0.00013	0
bin	0.000132	0
bin	0.000134	0
bin	0.000136	0
bin	0.000138	0
bin	0.00014	0
bin	0.000142	0
statistic FramePreemptionShowcase.host2.app[1].sink packetJitter:histogram
field count 102
field mean 1.0422799313725e-06
field stddev 4.319783652606e-05
field min -9.8666491e-05
field max 0.000100638407
field sum 0.000106312553
field sqrsum 1.885821685742e-07
attr interpolationmode none
attr recordingmode histogram
attr source jitter(weightedMeanPerGroup(groupRegionsPerPacket(lifeTimePerRegion(packetPushed))))
attr title "packet jitter"
attr unit s
bin	-inf	0
bin	-0.00015	0
bin	-0.000145	0
bin	-0.00014	0
bin	-0.000135	0
bin	-0.00013	0
bin	-0.000125	0
bin	-0.00012	0
bin	-0.000115	0
bin	-0.00011	0
bin	-0.000105	0
bin	-0.0001	2
bin	-9.5e-05	0
bin	-9e-05	1
bin	-8.5e-05	1
bin	-8e-05	0
bin	-7.5e-05	0
bin	-7e-05	2
bin	-6.5e-05	4
bin	-6e-05	3
bin	-5.5e-05	2
bin	-5e-05	3
bin	-4.5e-05	0
bin	-4e-05	3
bin	-3.5e-05	6
bin	-3e-05	3
bin	-2.5e-05	2
bin	-2e-05	2
bin	-1.5e-05	3
bin	-1e-05	5
bin	-5e-06	6
bin	0	4
bin	5e-06	4
bin	1e-05	9
bin	1.5e-05	2
bin	2e-05	4
bin	2.5e-05	5
bin	3e-05	5
bin	3.5e-05	3
bin	4e-05	4
bin	4.5e-05	2
bin	5e-05	1
bin	5.5e-05	4
bin	6e-05	0
bin	6.5e-05	2
bin	7e-05	0
bin	7.5e-05	1
bin	8e-05	2
bin	8.5e-05	1
bin	9e-05	0
bin	9.5e-05	0
bin	0.0001	1
bin	0.000105	0
bin	0.00011	0
bin	0.000115	0
bin	0.00012	0
bin	0.000125	0
bin	0.00013	0
bin	0.000135	0
bin	0.00014	0
bin	0.000145	0
bin	0.00015	0
bin	0.000155	0
statistic FramePreemptionShowcase.host2.app[1].sink packetDelayDifferenceToMean:histogram
field count 102
field mean -7.9535992492666e-07
field stddev 3.1289111326346e-05
field min -5.7364560666667e-05
field max 5.35034108e-05
field sum -8.1126712342519e-05
field sqrsum 9.8944382182678e-08
attr interpolationmode none
attr recordingmode histogram
attr source differenceToMean(weightedMeanPerGroup(groupRegionsPerPacket(lifeTimePerRegion(packetPushed))))
attr title "packet delay difference to mean"
attr unit s
bin	-inf	0
bin	-8.6e-05	0
bin	-8.4e-05	0
bin	-8.2e-05	0
bin	-8e-05	0
bin	-7.8e-05	0
bin	-7.6e-05	0
bin	-7.4e-05	0
bin	-7.2e-05	0
bin	-7e-05	0
bin	-6.8e-05	0
bin	-6.6e-05	0
bin	-6.4e-05	0
bin	-6.2e-05	0
bin	-6e-05	0
bin	-5.8e-05	1
bin	-5.6e-05	1
bin	-5.4e-05	1
bin	-5.2e-05	0
bin	-5e-05	0
bin	-4.8e-05	2
bin	-4.6e-05	3
bin	-4.4e-05	3
bin	-4.2e-05	5
bin	-4e-05	0
bin	-3.8e-05	1
bin	-3.6e-05	2
bin	-3.4e-05	2
bin	-3.2e-05	2
bin	-3e-05	2
bin	-2.8e-05	3
bin	-2.6e-05	1
bin	-2.4e-05	3
bin	-2.2e-05	2
bin	-2e-05	4
bin	-1.8e-05	1
bin	-1.6e-05	2
bin	-1.4e-05	1
bin	-1.2e-05	2
bin	-1e-05	0
bin	-8e-06	4
bin	-6e-06	2
bin	-4e-06	1
bin	-2e-06	0
bin	0	1
bin	2e-06	2
bin	4e-06	2
bin	6e-06	2
bin	8e-06	2
bin	1e-05	1
bin	1.2e-05	4
bin	1.4e-05	2
bin	1.6e-05	1
bin	1.8e-05	3
bin	2e-05	1
bin	2.2e-05	3
bin	2.4e-05	2
bin	2.6e-05	2
bin	2.8e-05	2
bin	3e-05	0
bin	3.2e-05	3
bin	3.4e-05	1
bin	3.6e-05	3
bin	3.8e-05	4
bin	4e-05	0
bin	4.2e-05	3
bin	4.4e-05	0
bin	4.6e-05	1
bin	4.8e-05	2
bin	5e-05	2
bin	5.2e-05	2
bin	5.4e-05	0
bin	5.6e-05	0
bin	5.8e-05	0
bin	6e-05	0
bin	6.2e-05	0
bin	6.4e-05	0
bin	6.6e-05	0
bin	6.8e-05	0
bin	7e-05	0
bin	7.2e-05	0
bin	7.4e-05	0
bin	7.6e-05	0
bin	7.8e-05	0
bin	8e-05	0
bin	8.2e-05	0
statistic FramePreemptionShowcase.host2.app[1].sink packetDelayVariation:histogram
field count 102
field mean 3.1720729736081e-05
field stddev 4.1507689147389e-06
field min 0
field max 3.5604836692902e-05
field sum 0.0032355144330803
field sqrsum 1.0437299602987e-07
attr recordingmode histogram
attr source stddev(weightedMeanPerGroup(groupRegionsPerPacket(lifeTimePerRegion(packetPushed))))
attr title "packet delay variation"
attr unit s
bin	-inf	0
bin	0	1
bin	5e-07	0
bin	1e-06	0
bin	1.5e-06	0
bin	2e-06	0
bin	2.5e-06	0
bin	3e-06	0
bin	3.5e-06	0
bin	4e-06	0
bin	4.5e-06	0
bin	5e-06	0
bin	5.5e-06	0
bin	6e-06	0
bin	6.5e-06	0
bin	7e-06	0
bin	7.5e-06	0
bin	8e-06	0
bin	8.5e-06	0
bin	9e-06	0
bin	9.5e-06	0
bin	1e-05	0
bin	1.05e-05	0
bin	1.1e-05	0
bin	1.15e-05	0
bin	1.2e-05	0
bin	1.25e-05	0
bin	1.3e-05	0
bin	1.35e-05	0
bin	1.4e-05	0
bin	1.45e-05	0
bin	1.5e-05	0
bin	1.55e-05	0
bin	1.6e-05	0
bin	1.65e-05	0
bin	1.7e-05	0
bin	1.75e-05	0
bin	1.8e-05	0
bin	1.85e-05	0
bin	1.9e-05	0
bin	1.95e-05	0
bin	2e-05	0
bin	2.05e-05	1
bin	2.1e-05	0
bin	2.15e-05	0
bin	2.2e-05	1
bin	2.25e-05	0
bin	2.3e-05	0
bin	2.35e-05	1
bin	2.4e-05	2
bin	2.45e-05	1
bin	2.5e-05	1
bin	2.55e-05	1
bin	2.6e-05	0
bin	2.65e-05	0
bin	2.7e-05	0
bin	2.75e-05	0
bin	2.8e-05	1
bin	2.85e-05	1
bin	2.9e-05	1
bin	2.95e-05	0
bin	3e-05	0
bin	3.05e-05	1
bin	3.1e-05	0
bin	3.15e-05	15
bin	3.2e-05	28
bin	3.25e-05	12
bin	3.3e-05	10
bin	3.35e-05	12
bin	3.4e-05	7
bin	3.45e-05	4
bin	3.5e-05	0
bin	3.55e-05	1
bin	3.6e-05	0
bin	3.65e-05	0
bin	3.7e-05	0
bin	3.75e-05	0
bin	3.8e-05	0
bin	3.85e-05	0
bin	3.9e-05	0
bin	3.95e-05	0
bin	4e-05	0
bin	4.05e-05	0
bin	4.1e-05	0
bin	4.15e-05	0
bin	4.2e-05	0
bin	4.25e-05	0
bin	4.3e-05	0
bin	4.35e-05	0
bin	4.4e-05	0
bin	4.45e-05	0
bin	4.5e-05	0
scalar FramePreemptionShowcase.host2.app[1].sink droppedPackets:count 102
attr recordingmode count
attr source packetDropped
attr title "dropped packets, count"
attr unit pk
scalar FramePreemptionShowcase.host2.app[1].sink droppedPacketLengths:sum 97920
attr interpolationmode none
attr recordingmode sum
attr source packetLength(packetDropped)
attr title "dropped packet lengths, sum"
attr unit b
statistic FramePreemptionShowcase.host2.app[1].sink droppedPacketLengths:histogram
field count 102
field mean 960
field stddev 0
field min 960
field max 960
field sum 97920
field sqrsum 94003200
attr interpolationmode none
attr recordingmode histogram
attr source packetLength(packetDropped)
attr title "dropped packet lengths"
attr unit b
bin	-inf	0
bin	959	0
bin	960	102
bin	961	0
scalar FramePreemptionShowcase.host2.app[1].io "packets sent" 0
scalar FramePreemptionShowcase.host2.app[1].io "packets received" 102
scalar FramePreemptionShowcase.host2.app[1].io packetReceived:count 102
attr interpolationmode none
attr recordingmode count
attr source packetReceived
attr title "packets received, count"
scalar FramePreemptionShowcase.host2.app[1].io packetReceived:sum(packetBytes) 12240
attr interpolationmode none
attr recordingmode sum(packetBytes)
attr source packetReceived
attr title "packets received, sum(packetBytes)"
scalar FramePreemptionShowcase.host2.app[1].io packetSent:count 0
attr interpolationmode none
attr recordingmode count
attr source packetSent
attr title "packets sent, count"
scalar FramePreemptionShowcase.host2.app[1].io packetSent:sum(packetBytes) 0
attr interpolationmode none
attr recordingmode sum(packetBytes)
attr source packetSent
attr title "packets sent, sum(packetBytes)"

