version 3
run FramePreemption-0-20250108-11:34:12-13562
attr configname FramePreemption
attr datetime 20250108-11:34:12
attr datetimef 20250108-113412
attr experiment FramePreemption
attr inifile omnetpp.ini
attr iterationvars ""
attr iterationvarsd ""
attr iterationvarsf ""
attr measurement ""
attr network FramePreemptionShowcase
attr processid 13562
attr repetition 0
attr replication #0
attr resultdir results
attr runnumber 0
attr seedset 0
config **.param-recording false
config image-path /home/levy/workspace/inet/images
config output-scalar-file results/omnetpp.ini-FramePreemption-#0.sca
config output-vector-file results/omnetpp.ini-FramePreemption-#0.vec
config sim-time-limit 1s
config description "Transmission of low priority frames are preempted by high priority frames"
config *.host*.eth[0].macLayer.typename EthernetPreemptingMacLayer
config *.host*.eth[0].phyLayer.typename EthernetPreemptingPhyLayer
config **.macLayer.*.queue.packetCapacity 4
config **.macLayer.*.queue.typename DropTailQueue
config network FramePreemptionShowcase
config sim-time-limit 1s
config *.*.ethernet.typename EthernetLayer
config *.host*.eth[0].typename LayeredEthernetInterface
config *.host*.eth[0].bitrate 100Mbps
config **.recordPcap true
config **.dumpProtocols "\"ethernetphy\""
config **.checksumMode "\"computed\""
config **.fcsMode "\"computed\""
config **.arp.typename GlobalArp
config *.host1.numApps 2
config *.host1.app[*].typename UdpSourceApp
config *.host1.app[0].source.packetNameFormat "\"background-%c\""
config *.host1.app[1].source.packetNameFormat "\"ts-%c\""
config *.host1.app[*].tagger.typename PacketTagger
config *.host1.app[0].tagger.vlanId 1
config *.host1.app[1].tagger.vlanId 0
config *.host1.app[*].io.destAddress "\"host2\""
config *.host1.app[0].io.destPort 1000
config *.host1.app[1].io.destPort 1001
config *.host1.app[0].source.packetLength 1200B
config *.host1.app[0].source.productionInterval truncnormal(100us,50us)
config *.host1.app[0].source.initialProductionOffset 5us
config *.host1.app[1].source.packetLength 1200B
config *.host1.app[1].source.productionInterval truncnormal(1ms,500us)
config *.host2.numApps 2
config *.host2.app[*].typename UdpSinkApp
config *.host2.app[0].io.localPort 1000
config *.host2.app[1].io.localPort 1001

scalar FramePreemptionShowcase.host1.ethernet.macHeaderInserter outgoingPackets:count 10729
scalar FramePreemptionShowcase.host1.ethernet.macHeaderInserter outgoingPacketLengths:sum 106603344
scalar FramePreemptionShowcase.host1.ethernet.macHeaderInserter flowOutgoingPacketLengths:sum 0
scalar FramePreemptionShowcase.host1.ethernet.macHeaderInserter incomingPackets:count 10729
scalar FramePreemptionShowcase.host1.ethernet.macHeaderInserter incomingPacketLengths:sum 105401696
scalar FramePreemptionShowcase.host1.ethernet.macHeaderInserter flowIncomingPacketLengths:sum 0
scalar FramePreemptionShowcase.host1.ethernet.paddingInserter outgoingPackets:count 10729
scalar FramePreemptionShowcase.host1.ethernet.paddingInserter outgoingPacketLengths:sum 106603344
scalar FramePreemptionShowcase.host1.ethernet.paddingInserter flowOutgoingPacketLengths:sum 0
scalar FramePreemptionShowcase.host1.ethernet.paddingInserter incomingPackets:count 10729
scalar FramePreemptionShowcase.host1.ethernet.paddingInserter incomingPacketLengths:sum 106603344
scalar FramePreemptionShowcase.host1.ethernet.paddingInserter flowIncomingPacketLengths:sum 0
scalar FramePreemptionShowcase.host1.ethernet.fcsInserter outgoingPackets:count 10729
scalar FramePreemptionShowcase.host1.ethernet.fcsInserter outgoingPacketLengths:sum 106946672
scalar FramePreemptionShowcase.host1.ethernet.fcsInserter flowOutgoingPacketLengths:sum 0
scalar FramePreemptionShowcase.host1.ethernet.fcsInserter incomingPackets:count 10729
scalar FramePreemptionShowcase.host1.ethernet.fcsInserter incomingPacketLengths:sum 106603344
scalar FramePreemptionShowcase.host1.ethernet.fcsInserter flowIncomingPacketLengths:sum 0
scalar FramePreemptionShowcase.host1.ethernet.macHeaderChecker outgoingPackets:count 0
scalar FramePreemptionShowcase.host1.ethernet.macHeaderChecker outgoingPacketLengths:sum 0
scalar FramePreemptionShowcase.host1.ethernet.macHeaderChecker flowOutgoingPacketLengths:sum 0
scalar FramePreemptionShowcase.host1.ethernet.macHeaderChecker incomingPackets:count 0
scalar FramePreemptionShowcase.host1.ethernet.macHeaderChecker incomingPacketLengths:sum 0
scalar FramePreemptionShowcase.host1.ethernet.macHeaderChecker flowIncomingPacketLengths:sum 0
scalar FramePreemptionShowcase.host1.ethernet.macHeaderChecker droppedPackets:count 0
scalar FramePreemptionShowcase.host1.ethernet.macHeaderChecker droppedPacketLengths:sum 0
scalar FramePreemptionShowcase.host1.ethernet.macHeaderChecker flowDroppedPacketLengths:sum 0
scalar FramePreemptionShowcase.host1.ethernet.fcsChecker outgoingPackets:count 0
scalar FramePreemptionShowcase.host1.ethernet.fcsChecker outgoingPacketLengths:sum 0
scalar FramePreemptionShowcase.host1.ethernet.fcsChecker flowOutgoingPacketLengths:sum 0
scalar FramePreemptionShowcase.host1.ethernet.fcsChecker incomingPackets:count 0
scalar FramePreemptionShowcase.host1.ethernet.fcsChecker incomingPacketLengths:sum 0
scalar FramePreemptionShowcase.host1.ethernet.fcsChecker flowIncomingPacketLengths:sum 0
scalar FramePreemptionShowcase.host1.ethernet.fcsChecker droppedPackets:count 0
scalar FramePreemptionShowcase.host1.ethernet.fcsChecker droppedPacketLengths:sum 0
scalar FramePreemptionShowcase.host1.ethernet.fcsChecker flowDroppedPacketLengths:sum 0
scalar FramePreemptionShowcase.host1.lo[0].lo rcvdPkFromHl:count 0
scalar FramePreemptionShowcase.host1.lo[0].lo rcvdPkFromHl:sum(packetBytes) 0
scalar FramePreemptionShowcase.host1.lo[0].lo passedUpPk:count 0
scalar FramePreemptionShowcase.host1.lo[0].lo passedUpPk:sum(packetBytes) 0
scalar FramePreemptionShowcase.host1.lo[0] packetDropInterfaceDown:count 0
scalar FramePreemptionShowcase.host1.lo[0] packetDropInterfaceDown:sum(packetBytes) 0
scalar FramePreemptionShowcase.host1.lo[0] packetDropNoCarrier:count 0
scalar FramePreemptionShowcase.host1.lo[0] packetDropNoCarrier:sum(packetBytes) 0
scalar FramePreemptionShowcase.host1.eth[0].macLayer.outboundClassifier packets:count 10729
scalar FramePreemptionShowcase.host1.eth[0].macLayer.outboundClassifier packetLengths:sum 106946672
scalar FramePreemptionShowcase.host1.eth[0].macLayer.expressMacLayer.queue queueLength:last 0
scalar FramePreemptionShowcase.host1.eth[0].macLayer.expressMacLayer.queue queueLength:max 1
scalar FramePreemptionShowcase.host1.eth[0].macLayer.expressMacLayer.queue queueLength:timeavg 0.002975282524
scalar FramePreemptionShowcase.host1.eth[0].macLayer.expressMacLayer.queue queueBitLength:last 0
scalar FramePreemptionShowcase.host1.eth[0].macLayer.expressMacLayer.queue queueBitLength:max 9968
scalar FramePreemptionShowcase.host1.eth[0].macLayer.expressMacLayer.queue queueBitLength:timeavg 29.657616199232
scalar FramePreemptionShowcase.host1.eth[0].macLayer.expressMacLayer.queue outgoingPackets:count 993
scalar FramePreemptionShowcase.host1.eth[0].macLayer.expressMacLayer.queue outgoingPacketLengths:sum 9898224
scalar FramePreemptionShowcase.host1.eth[0].macLayer.expressMacLayer.queue incomingPackets:count 993
scalar FramePreemptionShowcase.host1.eth[0].macLayer.expressMacLayer.queue incomingPacketLengths:sum 9898224
scalar FramePreemptionShowcase.host1.eth[0].macLayer.expressMacLayer.queue droppedPacketsQueueOverflow:count 0
scalar FramePreemptionShowcase.host1.eth[0].macLayer.expressMacLayer.queue droppedPacketLengthsQueueOverflow:sum 0
scalar FramePreemptionShowcase.host1.eth[0].macLayer.expressMacLayer.outboundEmitter outgoingPackets:count 1986
scalar FramePreemptionShowcase.host1.eth[0].macLayer.expressMacLayer.outboundEmitter outgoingPacketLengths:sum 19796448
scalar FramePreemptionShowcase.host1.eth[0].macLayer.expressMacLayer.outboundEmitter flowOutgoingPacketLengths:sum 0
scalar FramePreemptionShowcase.host1.eth[0].macLayer.expressMacLayer.outboundEmitter incomingPackets:count 1986
scalar FramePreemptionShowcase.host1.eth[0].macLayer.expressMacLayer.outboundEmitter incomingPacketLengths:sum 19796448
scalar FramePreemptionShowcase.host1.eth[0].macLayer.expressMacLayer.outboundEmitter flowIncomingPacketLengths:sum 0
scalar FramePreemptionShowcase.host1.eth[0].macLayer.expressMacLayer.fcsChecker outgoingPackets:count 0
scalar FramePreemptionShowcase.host1.eth[0].macLayer.expressMacLayer.fcsChecker outgoingPacketLengths:sum 0
scalar FramePreemptionShowcase.host1.eth[0].macLayer.expressMacLayer.fcsChecker flowOutgoingPacketLengths:sum 0
scalar FramePreemptionShowcase.host1.eth[0].macLayer.expressMacLayer.fcsChecker incomingPackets:count 0
scalar FramePreemptionShowcase.host1.eth[0].macLayer.expressMacLayer.fcsChecker incomingPacketLengths:sum 0
scalar FramePreemptionShowcase.host1.eth[0].macLayer.expressMacLayer.fcsChecker flowIncomingPacketLengths:sum 0
scalar FramePreemptionShowcase.host1.eth[0].macLayer.expressMacLayer.fcsChecker droppedPackets:count 0
scalar FramePreemptionShowcase.host1.eth[0].macLayer.expressMacLayer.fcsChecker droppedPacketLengths:sum 0
scalar FramePreemptionShowcase.host1.eth[0].macLayer.expressMacLayer.fcsChecker flowDroppedPacketLengths:sum 0
scalar FramePreemptionShowcase.host1.eth[0].macLayer.expressMacLayer.inboundEmitter outgoingPackets:count 0
scalar FramePreemptionShowcase.host1.eth[0].macLayer.expressMacLayer.inboundEmitter outgoingPacketLengths:sum 0
scalar FramePreemptionShowcase.host1.eth[0].macLayer.expressMacLayer.inboundEmitter flowOutgoingPacketLengths:sum 0
scalar FramePreemptionShowcase.host1.eth[0].macLayer.expressMacLayer.inboundEmitter incomingPackets:count 0
scalar FramePreemptionShowcase.host1.eth[0].macLayer.expressMacLayer.inboundEmitter incomingPacketLengths:sum 0
scalar FramePreemptionShowcase.host1.eth[0].macLayer.expressMacLayer.inboundEmitter flowIncomingPacketLengths:sum 0
scalar FramePreemptionShowcase.host1.eth[0].macLayer.preemptableMacLayer.queue queueLength:last 2
scalar FramePreemptionShowcase.host1.eth[0].macLayer.preemptableMacLayer.queue queueLength:max 4
scalar FramePreemptionShowcase.host1.eth[0].macLayer.preemptableMacLayer.queue queueLength:timeavg 2.683375788645
scalar FramePreemptionShowcase.host1.eth[0].macLayer.preemptableMacLayer.queue queueBitLength:last 19936
scalar FramePreemptionShowcase.host1.eth[0].macLayer.preemptableMacLayer.queue queueBitLength:max 39872
scalar FramePreemptionShowcase.host1.eth[0].macLayer.preemptableMacLayer.queue queueBitLength:timeavg 26747.889861214
scalar FramePreemptionShowcase.host1.eth[0].macLayer.preemptableMacLayer.queue outgoingPackets:count 8833
scalar FramePreemptionShowcase.host1.eth[0].macLayer.preemptableMacLayer.queue outgoingPacketLengths:sum 88047344
scalar FramePreemptionShowcase.host1.eth[0].macLayer.preemptableMacLayer.queue incomingPackets:count 9736
scalar FramePreemptionShowcase.host1.eth[0].macLayer.preemptableMacLayer.queue incomingPacketLengths:sum 97048448
scalar FramePreemptionShowcase.host1.eth[0].macLayer.preemptableMacLayer.queue droppedPacketsQueueOverflow:count 901
scalar FramePreemptionShowcase.host1.eth[0].macLayer.preemptableMacLayer.queue droppedPacketLengthsQueueOverflow:sum 8981168
scalar FramePreemptionShowcase.host1.eth[0].macLayer.preemptableMacLayer.fcsRemover outgoingPackets:count 8833
scalar FramePreemptionShowcase.host1.eth[0].macLayer.preemptableMacLayer.fcsRemover outgoingPacketLengths:sum 87764688
scalar FramePreemptionShowcase.host1.eth[0].macLayer.preemptableMacLayer.fcsRemover flowOutgoingPacketLengths:sum 0
scalar FramePreemptionShowcase.host1.eth[0].macLayer.preemptableMacLayer.fcsRemover incomingPackets:count 8833
scalar FramePreemptionShowcase.host1.eth[0].macLayer.preemptableMacLayer.fcsRemover incomingPacketLengths:sum 88047344
scalar FramePreemptionShowcase.host1.eth[0].macLayer.preemptableMacLayer.fcsRemover flowIncomingPacketLengths:sum 0
scalar FramePreemptionShowcase.host1.eth[0].macLayer.preemptableMacLayer.fcsRemover droppedPackets:count 0
scalar FramePreemptionShowcase.host1.eth[0].macLayer.preemptableMacLayer.fcsRemover droppedPacketLengths:sum 0
scalar FramePreemptionShowcase.host1.eth[0].macLayer.preemptableMacLayer.fcsRemover flowDroppedPacketLengths:sum 0
scalar FramePreemptionShowcase.host1.eth[0].macLayer.preemptableMacLayer.fragmentFcsInserter outgoingPackets:count 19499
scalar FramePreemptionShowcase.host1.eth[0].macLayer.preemptableMacLayer.fragmentFcsInserter outgoingPacketLengths:sum 180814704
scalar FramePreemptionShowcase.host1.eth[0].macLayer.preemptableMacLayer.fragmentFcsInserter flowOutgoingPacketLengths:sum 0
scalar FramePreemptionShowcase.host1.eth[0].macLayer.preemptableMacLayer.fragmentFcsInserter incomingPackets:count 19499
scalar FramePreemptionShowcase.host1.eth[0].macLayer.preemptableMacLayer.fragmentFcsInserter incomingPacketLengths:sum 180190736
scalar FramePreemptionShowcase.host1.eth[0].macLayer.preemptableMacLayer.fragmentFcsInserter flowIncomingPacketLengths:sum 0
scalar FramePreemptionShowcase.host1.eth[0].macLayer.preemptableMacLayer.outboundEmitter outgoingPackets:count 19499
scalar FramePreemptionShowcase.host1.eth[0].macLayer.preemptableMacLayer.outboundEmitter outgoingPacketLengths:sum 180814704
scalar FramePreemptionShowcase.host1.eth[0].macLayer.preemptableMacLayer.outboundEmitter flowOutgoingPacketLengths:sum 0
scalar FramePreemptionShowcase.host1.eth[0].macLayer.preemptableMacLayer.outboundEmitter incomingPackets:count 19499
scalar FramePreemptionShowcase.host1.eth[0].macLayer.preemptableMacLayer.outboundEmitter incomingPacketLengths:sum 180814704
scalar FramePreemptionShowcase.host1.eth[0].macLayer.preemptableMacLayer.outboundEmitter flowIncomingPacketLengths:sum 0
scalar FramePreemptionShowcase.host1.eth[0].macLayer.preemptableMacLayer.fcsInserter outgoingPackets:count 0
scalar FramePreemptionShowcase.host1.eth[0].macLayer.preemptableMacLayer.fcsInserter outgoingPacketLengths:sum 0
scalar FramePreemptionShowcase.host1.eth[0].macLayer.preemptableMacLayer.fcsInserter flowOutgoingPacketLengths:sum 0
scalar FramePreemptionShowcase.host1.eth[0].macLayer.preemptableMacLayer.fcsInserter incomingPackets:count 0
scalar FramePreemptionShowcase.host1.eth[0].macLayer.preemptableMacLayer.fcsInserter incomingPacketLengths:sum 0
scalar FramePreemptionShowcase.host1.eth[0].macLayer.preemptableMacLayer.fcsInserter flowIncomingPacketLengths:sum 0
scalar FramePreemptionShowcase.host1.eth[0].macLayer.preemptableMacLayer.fragmentFcsChecker outgoingPackets:count 0
scalar FramePreemptionShowcase.host1.eth[0].macLayer.preemptableMacLayer.fragmentFcsChecker outgoingPacketLengths:sum 0
scalar FramePreemptionShowcase.host1.eth[0].macLayer.preemptableMacLayer.fragmentFcsChecker flowOutgoingPacketLengths:sum 0
scalar FramePreemptionShowcase.host1.eth[0].macLayer.preemptableMacLayer.fragmentFcsChecker incomingPackets:count 0
scalar FramePreemptionShowcase.host1.eth[0].macLayer.preemptableMacLayer.fragmentFcsChecker incomingPacketLengths:sum 0
scalar FramePreemptionShowcase.host1.eth[0].macLayer.preemptableMacLayer.fragmentFcsChecker flowIncomingPacketLengths:sum 0
scalar FramePreemptionShowcase.host1.eth[0].macLayer.preemptableMacLayer.fragmentFcsChecker droppedPackets:count 0
scalar FramePreemptionShowcase.host1.eth[0].macLayer.preemptableMacLayer.fragmentFcsChecker droppedPacketLengths:sum 0
scalar FramePreemptionShowcase.host1.eth[0].macLayer.preemptableMacLayer.fragmentFcsChecker flowDroppedPacketLengths:sum 0
scalar FramePreemptionShowcase.host1.eth[0].macLayer.preemptableMacLayer.inboundEmitter outgoingPackets:count 0
scalar FramePreemptionShowcase.host1.eth[0].macLayer.preemptableMacLayer.inboundEmitter outgoingPacketLengths:sum 0
scalar FramePreemptionShowcase.host1.eth[0].macLayer.preemptableMacLayer.inboundEmitter flowOutgoingPacketLengths:sum 0
scalar FramePreemptionShowcase.host1.eth[0].macLayer.preemptableMacLayer.inboundEmitter incomingPackets:count 0
scalar FramePreemptionShowcase.host1.eth[0].macLayer.preemptableMacLayer.inboundEmitter incomingPacketLengths:sum 0
scalar FramePreemptionShowcase.host1.eth[0].macLayer.preemptableMacLayer.inboundEmitter flowIncomingPacketLengths:sum 0
scalar FramePreemptionShowcase.host1.eth[0].macLayer.scheduler packets:count 10742
scalar FramePreemptionShowcase.host1.eth[0].macLayer.scheduler packetLengths:sum 97964944
scalar FramePreemptionShowcase.host1.eth[0].macLayer.preemptingServer incomingPackets:count 0
scalar FramePreemptionShowcase.host1.eth[0].macLayer.preemptingServer incomingPacketLengths:sum 0
scalar FramePreemptionShowcase.host1.eth[0].macLayer.preemptingServer outgoingPackets:count 0
scalar FramePreemptionShowcase.host1.eth[0].macLayer.preemptingServer outgoingPacketLengths:sum 0
scalar FramePreemptionShowcase.host1.eth[0].macLayer.inboundClassifier packets:count 0
scalar FramePreemptionShowcase.host1.eth[0].macLayer.inboundClassifier packetLengths:sum 0
scalar FramePreemptionShowcase.host1.eth[0].macLayer.multiplexer packets:count 0
scalar FramePreemptionShowcase.host1.eth[0].macLayer.multiplexer packetLengths:sum 0
scalar FramePreemptionShowcase.host1.eth[0].phyLayer.c1 packets:count 10742
scalar FramePreemptionShowcase.host1.eth[0].phyLayer.c1 packetLengths:sum 97964944
scalar FramePreemptionShowcase.host1.eth[0].phyLayer.phyHeaderInserter outgoingPackets:count 993
scalar FramePreemptionShowcase.host1.eth[0].phyLayer.phyHeaderInserter outgoingPacketLengths:sum 9961776
scalar FramePreemptionShowcase.host1.eth[0].phyLayer.phyHeaderInserter flowOutgoingPacketLengths:sum 0
scalar FramePreemptionShowcase.host1.eth[0].phyLayer.phyHeaderInserter incomingPackets:count 0
scalar FramePreemptionShowcase.host1.eth[0].phyLayer.phyHeaderInserter incomingPacketLengths:sum 0
scalar FramePreemptionShowcase.host1.eth[0].phyLayer.phyHeaderInserter flowIncomingPacketLengths:sum 0
scalar FramePreemptionShowcase.host1.eth[0].phyLayer.fragmentPhyHeaderInserter outgoingPackets:count 9749
scalar FramePreemptionShowcase.host1.eth[0].phyLayer.fragmentPhyHeaderInserter outgoingPacketLengths:sum 88690656
scalar FramePreemptionShowcase.host1.eth[0].phyLayer.fragmentPhyHeaderInserter flowOutgoingPacketLengths:sum 0
scalar FramePreemptionShowcase.host1.eth[0].phyLayer.fragmentPhyHeaderInserter incomingPackets:count 0
scalar FramePreemptionShowcase.host1.eth[0].phyLayer.fragmentPhyHeaderInserter incomingPacketLengths:sum 0
scalar FramePreemptionShowcase.host1.eth[0].phyLayer.fragmentPhyHeaderInserter flowIncomingPacketLengths:sum 0
scalar FramePreemptionShowcase.host1.eth[0].phyLayer.m1 packets:count 10742
scalar FramePreemptionShowcase.host1.eth[0].phyLayer.m1 packetLengths:sum 98652432
scalar FramePreemptionShowcase.host1.eth[0].phyLayer.outboundEmitter outgoingPackets:count 10742
scalar FramePreemptionShowcase.host1.eth[0].phyLayer.outboundEmitter outgoingPacketLengths:sum 98652432
scalar FramePreemptionShowcase.host1.eth[0].phyLayer.outboundEmitter flowOutgoingPacketLengths:sum 0
scalar FramePreemptionShowcase.host1.eth[0].phyLayer.outboundEmitter incomingPackets:count 0
scalar FramePreemptionShowcase.host1.eth[0].phyLayer.outboundEmitter incomingPacketLengths:sum 0
scalar FramePreemptionShowcase.host1.eth[0].phyLayer.outboundEmitter flowIncomingPacketLengths:sum 0
scalar FramePreemptionShowcase.host1.eth[0].phyLayer.transmitter propagationTime 5e-08
scalar FramePreemptionShowcase.host1.eth[0].phyLayer.m2 packets:count 0
scalar FramePreemptionShowcase.host1.eth[0].phyLayer.m2 packetLengths:sum 0
scalar FramePreemptionShowcase.host1.eth[0].phyLayer.fragmentPhyHeaderChecker outgoingPackets:count 0
scalar FramePreemptionShowcase.host1.eth[0].phyLayer.fragmentPhyHeaderChecker outgoingPacketLengths:sum 0
scalar FramePreemptionShowcase.host1.eth[0].phyLayer.fragmentPhyHeaderChecker flowOutgoingPacketLengths:sum 0
scalar FramePreemptionShowcase.host1.eth[0].phyLayer.fragmentPhyHeaderChecker incomingPackets:count 0
scalar FramePreemptionShowcase.host1.eth[0].phyLayer.fragmentPhyHeaderChecker incomingPacketLengths:sum 0
scalar FramePreemptionShowcase.host1.eth[0].phyLayer.fragmentPhyHeaderChecker flowIncomingPacketLengths:sum 0
scalar FramePreemptionShowcase.host1.eth[0].phyLayer.fragmentPhyHeaderChecker droppedPackets:count 0
scalar FramePreemptionShowcase.host1.eth[0].phyLayer.fragmentPhyHeaderChecker droppedPacketLengths:sum 0
scalar FramePreemptionShowcase.host1.eth[0].phyLayer.fragmentPhyHeaderChecker flowDroppedPacketLengths:sum 0
scalar FramePreemptionShowcase.host1.eth[0].phyLayer.phyHeaderChecker outgoingPackets:count 0
scalar FramePreemptionShowcase.host1.eth[0].phyLayer.phyHeaderChecker outgoingPacketLengths:sum 0
scalar FramePreemptionShowcase.host1.eth[0].phyLayer.phyHeaderChecker flowOutgoingPacketLengths:sum 0
scalar FramePreemptionShowcase.host1.eth[0].phyLayer.phyHeaderChecker incomingPackets:count 0
scalar FramePreemptionShowcase.host1.eth[0].phyLayer.phyHeaderChecker incomingPacketLengths:sum 0
scalar FramePreemptionShowcase.host1.eth[0].phyLayer.phyHeaderChecker flowIncomingPacketLengths:sum 0
scalar FramePreemptionShowcase.host1.eth[0].phyLayer.phyHeaderChecker droppedPackets:count 0
scalar FramePreemptionShowcase.host1.eth[0].phyLayer.phyHeaderChecker droppedPacketLengths:sum 0
scalar FramePreemptionShowcase.host1.eth[0].phyLayer.phyHeaderChecker flowDroppedPacketLengths:sum 0
scalar FramePreemptionShowcase.host1.eth[0].phyLayer.c2 packets:count 0
scalar FramePreemptionShowcase.host1.eth[0].phyLayer.c2 packetLengths:sum 0
scalar FramePreemptionShowcase.host1.eth[0].phyLayer.inboundEmitter outgoingPackets:count 0
scalar FramePreemptionShowcase.host1.eth[0].phyLayer.inboundEmitter outgoingPacketLengths:sum 0
scalar FramePreemptionShowcase.host1.eth[0].phyLayer.inboundEmitter flowOutgoingPacketLengths:sum 0
scalar FramePreemptionShowcase.host1.eth[0].phyLayer.inboundEmitter incomingPackets:count 0
scalar FramePreemptionShowcase.host1.eth[0].phyLayer.inboundEmitter incomingPacketLengths:sum 0
scalar FramePreemptionShowcase.host1.eth[0].phyLayer.inboundEmitter flowIncomingPacketLengths:sum 0
scalar FramePreemptionShowcase.host1.eth[0] packetDropInterfaceDown:count 0
scalar FramePreemptionShowcase.host1.eth[0] packetDropInterfaceDown:sum(packetBytes) 0
scalar FramePreemptionShowcase.host1.eth[0] packetDropNoCarrier:count 0
scalar FramePreemptionShowcase.host1.eth[0] packetDropNoCarrier:sum(packetBytes) 0
scalar FramePreemptionShowcase.host1.ipv4.ip packetDropAddressResolutionFailed:count 0
scalar FramePreemptionShowcase.host1.ipv4.ip packetDropAddressResolutionFailed:sum(packetBytes) 0
scalar FramePreemptionShowcase.host1.ipv4.ip packetDropHopLimitReached:count 0
scalar FramePreemptionShowcase.host1.ipv4.ip packetDropHopLimitReached:sum(packetBytes) 0
scalar FramePreemptionShowcase.host1.ipv4.ip packetDropForwardingDisabled:count 0
scalar FramePreemptionShowcase.host1.ipv4.ip packetDropForwardingDisabled:sum(packetBytes) 0
scalar FramePreemptionShowcase.host1.ipv4.ip packetDropLifetimeExpired:count 0
scalar FramePreemptionShowcase.host1.ipv4.ip packetDropLifetimeExpired:sum(packetBytes) 0
scalar FramePreemptionShowcase.host1.ipv4.ip packetDropNoInterfaceFound:count 0
scalar FramePreemptionShowcase.host1.ipv4.ip packetDropNoInterfaceFound:sum(packetBytes) 0
scalar FramePreemptionShowcase.host1.ipv4.ip packetDropNoRouteFound:count 0
scalar FramePreemptionShowcase.host1.ipv4.ip packetDropNoRouteFound:sum(packetBytes) 0
scalar FramePreemptionShowcase.host1.ipv4.ip packetDropUndefined:count 0
scalar FramePreemptionShowcase.host1.ipv4.ip packetDropUndefined:sum(packetBytes) 0
scalar FramePreemptionShowcase.host1.udp packetReceived:count 0
scalar FramePreemptionShowcase.host1.udp packetReceived:sum(packetBytes) 0
scalar FramePreemptionShowcase.host1.udp packetSent:count 10729
scalar FramePreemptionShowcase.host1.udp packetSent:sum(packetBytes) 12960632
scalar FramePreemptionShowcase.host1.udp passedUpPk:count 0
scalar FramePreemptionShowcase.host1.udp droppedPkWrongPort:count 0
scalar FramePreemptionShowcase.host1.udp droppedPkBadChecksum:count 0
scalar FramePreemptionShowcase.host1.app[0].source packets:count 9736
scalar FramePreemptionShowcase.host1.app[0].source packetLengths:sum 93465600
scalar FramePreemptionShowcase.host1.app[0].tagger outgoingPackets:count 9736
scalar FramePreemptionShowcase.host1.app[0].tagger outgoingPacketLengths:sum 93465600
scalar FramePreemptionShowcase.host1.app[0].tagger flowOutgoingPacketLengths:sum 0
scalar FramePreemptionShowcase.host1.app[0].tagger incomingPackets:count 9736
scalar FramePreemptionShowcase.host1.app[0].tagger incomingPacketLengths:sum 93465600
scalar FramePreemptionShowcase.host1.app[0].tagger flowIncomingPacketLengths:sum 0
scalar FramePreemptionShowcase.host1.app[0].io "packets sent" 9736
scalar FramePreemptionShowcase.host1.app[0].io "packets received" 0
scalar FramePreemptionShowcase.host1.app[0].io packetReceived:count 0
scalar FramePreemptionShowcase.host1.app[0].io packetReceived:sum(packetBytes) 0
scalar FramePreemptionShowcase.host1.app[0].io packetSent:count 9736
scalar FramePreemptionShowcase.host1.app[0].io packetSent:sum(packetBytes) 11683200
scalar FramePreemptionShowcase.host1.app[1].source packets:count 993
scalar FramePreemptionShowcase.host1.app[1].source packetLengths:sum 9532800
scalar FramePreemptionShowcase.host1.app[1].tagger outgoingPackets:count 993
scalar FramePreemptionShowcase.host1.app[1].tagger outgoingPacketLengths:sum 9532800
scalar FramePreemptionShowcase.host1.app[1].tagger flowOutgoingPacketLengths:sum 0
scalar FramePreemptionShowcase.host1.app[1].tagger incomingPackets:count 993
scalar FramePreemptionShowcase.host1.app[1].tagger incomingPacketLengths:sum 9532800
scalar FramePreemptionShowcase.host1.app[1].tagger flowIncomingPacketLengths:sum 0
scalar FramePreemptionShowcase.host1.app[1].io "packets sent" 993
scalar FramePreemptionShowcase.host1.app[1].io "packets received" 0
scalar FramePreemptionShowcase.host1.app[1].io packetReceived:count 0
scalar FramePreemptionShowcase.host1.app[1].io packetReceived:sum(packetBytes) 0
scalar FramePreemptionShowcase.host1.app[1].io packetSent:count 993
scalar FramePreemptionShowcase.host1.app[1].io packetSent:sum(packetBytes) 1191600
scalar FramePreemptionShowcase.host2.ethernet.macHeaderInserter outgoingPackets:count 0
scalar FramePreemptionShowcase.host2.ethernet.macHeaderInserter outgoingPacketLengths:sum 0
scalar FramePreemptionShowcase.host2.ethernet.macHeaderInserter flowOutgoingPacketLengths:sum 0
scalar FramePreemptionShowcase.host2.ethernet.macHeaderInserter incomingPackets:count 0
scalar FramePreemptionShowcase.host2.ethernet.macHeaderInserter incomingPacketLengths:sum 0
scalar FramePreemptionShowcase.host2.ethernet.macHeaderInserter flowIncomingPacketLengths:sum 0
scalar FramePreemptionShowcase.host2.ethernet.paddingInserter outgoingPackets:count 0
scalar FramePreemptionShowcase.host2.ethernet.paddingInserter outgoingPacketLengths:sum 0
scalar FramePreemptionShowcase.host2.ethernet.paddingInserter flowOutgoingPacketLengths:sum 0
scalar FramePreemptionShowcase.host2.ethernet.paddingInserter incomingPackets:count 0
scalar FramePreemptionShowcase.host2.ethernet.paddingInserter incomingPacketLengths:sum 0
scalar FramePreemptionShowcase.host2.ethernet.paddingInserter flowIncomingPacketLengths:sum 0
scalar FramePreemptionShowcase.host2.ethernet.fcsInserter outgoingPackets:count 0
scalar FramePreemptionShowcase.host2.ethernet.fcsInserter outgoingPacketLengths:sum 0
scalar FramePreemptionShowcase.host2.ethernet.fcsInserter flowOutgoingPacketLengths:sum 0
scalar FramePreemptionShowcase.host2.ethernet.fcsInserter incomingPackets:count 0
scalar FramePreemptionShowcase.host2.ethernet.fcsInserter incomingPacketLengths:sum 0
scalar FramePreemptionShowcase.host2.ethernet.fcsInserter flowIncomingPacketLengths:sum 0
scalar FramePreemptionShowcase.host2.ethernet.macHeaderChecker outgoingPackets:count 9825
scalar FramePreemptionShowcase.host2.ethernet.macHeaderChecker outgoingPacketLengths:sum 96520800
scalar FramePreemptionShowcase.host2.ethernet.macHeaderChecker flowOutgoingPacketLengths:sum 0
scalar FramePreemptionShowcase.host2.ethernet.macHeaderChecker incomingPackets:count 9825
scalar FramePreemptionShowcase.host2.ethernet.macHeaderChecker incomingPacketLengths:sum 97621200
scalar FramePreemptionShowcase.host2.ethernet.macHeaderChecker flowIncomingPacketLengths:sum 0
scalar FramePreemptionShowcase.host2.ethernet.macHeaderChecker droppedPackets:count 0
scalar FramePreemptionShowcase.host2.ethernet.macHeaderChecker droppedPacketLengths:sum 0
scalar FramePreemptionShowcase.host2.ethernet.macHeaderChecker flowDroppedPacketLengths:sum 0
scalar FramePreemptionShowcase.host2.ethernet.fcsChecker outgoingPackets:count 9825
scalar FramePreemptionShowcase.host2.ethernet.fcsChecker outgoingPacketLengths:sum 97621200
scalar FramePreemptionShowcase.host2.ethernet.fcsChecker flowOutgoingPacketLengths:sum 0
scalar FramePreemptionShowcase.host2.ethernet.fcsChecker incomingPackets:count 9825
scalar FramePreemptionShowcase.host2.ethernet.fcsChecker incomingPacketLengths:sum 97935600
scalar FramePreemptionShowcase.host2.ethernet.fcsChecker flowIncomingPacketLengths:sum 0
scalar FramePreemptionShowcase.host2.ethernet.fcsChecker droppedPackets:count 0
scalar FramePreemptionShowcase.host2.ethernet.fcsChecker droppedPacketLengths:sum 0
scalar FramePreemptionShowcase.host2.ethernet.fcsChecker flowDroppedPacketLengths:sum 0
scalar FramePreemptionShowcase.host2.lo[0].lo rcvdPkFromHl:count 0
scalar FramePreemptionShowcase.host2.lo[0].lo rcvdPkFromHl:sum(packetBytes) 0
scalar FramePreemptionShowcase.host2.lo[0].lo passedUpPk:count 0
scalar FramePreemptionShowcase.host2.lo[0].lo passedUpPk:sum(packetBytes) 0
scalar FramePreemptionShowcase.host2.lo[0] packetDropInterfaceDown:count 0
scalar FramePreemptionShowcase.host2.lo[0] packetDropInterfaceDown:sum(packetBytes) 0
scalar FramePreemptionShowcase.host2.lo[0] packetDropNoCarrier:count 0
scalar FramePreemptionShowcase.host2.lo[0] packetDropNoCarrier:sum(packetBytes) 0
scalar FramePreemptionShowcase.host2.eth[0].macLayer.outboundClassifier packets:count 0
scalar FramePreemptionShowcase.host2.eth[0].macLayer.outboundClassifier packetLengths:sum 0
scalar FramePreemptionShowcase.host2.eth[0].macLayer.expressMacLayer.queue queueLength:last 0
scalar FramePreemptionShowcase.host2.eth[0].macLayer.expressMacLayer.queue queueLength:max 0
scalar FramePreemptionShowcase.host2.eth[0].macLayer.expressMacLayer.queue queueLength:timeavg 0
scalar FramePreemptionShowcase.host2.eth[0].macLayer.expressMacLayer.queue queueBitLength:last 0
scalar FramePreemptionShowcase.host2.eth[0].macLayer.expressMacLayer.queue queueBitLength:max 0
scalar FramePreemptionShowcase.host2.eth[0].macLayer.expressMacLayer.queue queueBitLength:timeavg 0
scalar FramePreemptionShowcase.host2.eth[0].macLayer.expressMacLayer.queue outgoingPackets:count 0
scalar FramePreemptionShowcase.host2.eth[0].macLayer.expressMacLayer.queue outgoingPacketLengths:sum 0
scalar FramePreemptionShowcase.host2.eth[0].macLayer.expressMacLayer.queue incomingPackets:count 0
scalar FramePreemptionShowcase.host2.eth[0].macLayer.expressMacLayer.queue incomingPacketLengths:sum 0
scalar FramePreemptionShowcase.host2.eth[0].macLayer.expressMacLayer.queue droppedPacketsQueueOverflow:count 0
scalar FramePreemptionShowcase.host2.eth[0].macLayer.expressMacLayer.queue droppedPacketLengthsQueueOverflow:sum 0
scalar FramePreemptionShowcase.host2.eth[0].macLayer.expressMacLayer.outboundEmitter outgoingPackets:count 0
scalar FramePreemptionShowcase.host2.eth[0].macLayer.expressMacLayer.outboundEmitter outgoingPacketLengths:sum 0
scalar FramePreemptionShowcase.host2.eth[0].macLayer.expressMacLayer.outboundEmitter flowOutgoingPacketLengths:sum 0
scalar FramePreemptionShowcase.host2.eth[0].macLayer.expressMacLayer.outboundEmitter incomingPackets:count 0
scalar FramePreemptionShowcase.host2.eth[0].macLayer.expressMacLayer.outboundEmitter incomingPacketLengths:sum 0
scalar FramePreemptionShowcase.host2.eth[0].macLayer.expressMacLayer.outboundEmitter flowIncomingPacketLengths:sum 0
scalar FramePreemptionShowcase.host2.eth[0].macLayer.expressMacLayer.fcsChecker outgoingPackets:count 993
scalar FramePreemptionShowcase.host2.eth[0].macLayer.expressMacLayer.fcsChecker outgoingPacketLengths:sum 9898224
scalar FramePreemptionShowcase.host2.eth[0].macLayer.expressMacLayer.fcsChecker flowOutgoingPacketLengths:sum 0
scalar FramePreemptionShowcase.host2.eth[0].macLayer.expressMacLayer.fcsChecker incomingPackets:count 993
scalar FramePreemptionShowcase.host2.eth[0].macLayer.expressMacLayer.fcsChecker incomingPacketLengths:sum 9898224
scalar FramePreemptionShowcase.host2.eth[0].macLayer.expressMacLayer.fcsChecker flowIncomingPacketLengths:sum 0
scalar FramePreemptionShowcase.host2.eth[0].macLayer.expressMacLayer.fcsChecker droppedPackets:count 0
scalar FramePreemptionShowcase.host2.eth[0].macLayer.expressMacLayer.fcsChecker droppedPacketLengths:sum 0
scalar FramePreemptionShowcase.host2.eth[0].macLayer.expressMacLayer.fcsChecker flowDroppedPacketLengths:sum 0
scalar FramePreemptionShowcase.host2.eth[0].macLayer.expressMacLayer.inboundEmitter outgoingPackets:count 993
scalar FramePreemptionShowcase.host2.eth[0].macLayer.expressMacLayer.inboundEmitter outgoingPacketLengths:sum 9898224
scalar FramePreemptionShowcase.host2.eth[0].macLayer.expressMacLayer.inboundEmitter flowOutgoingPacketLengths:sum 0
scalar FramePreemptionShowcase.host2.eth[0].macLayer.expressMacLayer.inboundEmitter incomingPackets:count 993
scalar FramePreemptionShowcase.host2.eth[0].macLayer.expressMacLayer.inboundEmitter incomingPacketLengths:sum 9898224
scalar FramePreemptionShowcase.host2.eth[0].macLayer.expressMacLayer.inboundEmitter flowIncomingPacketLengths:sum 0
scalar FramePreemptionShowcase.host2.eth[0].macLayer.preemptableMacLayer.queue queueLength:last 0
scalar FramePreemptionShowcase.host2.eth[0].macLayer.preemptableMacLayer.queue queueLength:max 0
scalar FramePreemptionShowcase.host2.eth[0].macLayer.preemptableMacLayer.queue queueLength:timeavg 0
scalar FramePreemptionShowcase.host2.eth[0].macLayer.preemptableMacLayer.queue queueBitLength:last 0
scalar FramePreemptionShowcase.host2.eth[0].macLayer.preemptableMacLayer.queue queueBitLength:max 0
scalar FramePreemptionShowcase.host2.eth[0].macLayer.preemptableMacLayer.queue queueBitLength:timeavg 0
scalar FramePreemptionShowcase.host2.eth[0].macLayer.preemptableMacLayer.queue outgoingPackets:count 0
scalar FramePreemptionShowcase.host2.eth[0].macLayer.preemptableMacLayer.queue outgoingPacketLengths:sum 0
scalar FramePreemptionShowcase.host2.eth[0].macLayer.preemptableMacLayer.queue incomingPackets:count 0
scalar FramePreemptionShowcase.host2.eth[0].macLayer.preemptableMacLayer.queue incomingPacketLengths:sum 0
scalar FramePreemptionShowcase.host2.eth[0].macLayer.preemptableMacLayer.queue droppedPacketsQueueOverflow:count 0
scalar FramePreemptionShowcase.host2.eth[0].macLayer.preemptableMacLayer.queue droppedPacketLengthsQueueOverflow:sum 0
scalar FramePreemptionShowcase.host2.eth[0].macLayer.preemptableMacLayer.fcsRemover outgoingPackets:count 0
scalar FramePreemptionShowcase.host2.eth[0].macLayer.preemptableMacLayer.fcsRemover outgoingPacketLengths:sum 0
scalar FramePreemptionShowcase.host2.eth[0].macLayer.preemptableMacLayer.fcsRemover flowOutgoingPacketLengths:sum 0
scalar FramePreemptionShowcase.host2.eth[0].macLayer.preemptableMacLayer.fcsRemover incomingPackets:count 0
scalar FramePreemptionShowcase.host2.eth[0].macLayer.preemptableMacLayer.fcsRemover incomingPacketLengths:sum 0
scalar FramePreemptionShowcase.host2.eth[0].macLayer.preemptableMacLayer.fcsRemover flowIncomingPacketLengths:sum 0
scalar FramePreemptionShowcase.host2.eth[0].macLayer.preemptableMacLayer.fcsRemover droppedPackets:count 0
scalar FramePreemptionShowcase.host2.eth[0].macLayer.preemptableMacLayer.fcsRemover droppedPacketLengths:sum 0
scalar FramePreemptionShowcase.host2.eth[0].macLayer.preemptableMacLayer.fcsRemover flowDroppedPacketLengths:sum 0
scalar FramePreemptionShowcase.host2.eth[0].macLayer.preemptableMacLayer.fragmentFcsInserter outgoingPackets:count 0
scalar FramePreemptionShowcase.host2.eth[0].macLayer.preemptableMacLayer.fragmentFcsInserter outgoingPacketLengths:sum 0
scalar FramePreemptionShowcase.host2.eth[0].macLayer.preemptableMacLayer.fragmentFcsInserter flowOutgoingPacketLengths:sum 0
scalar FramePreemptionShowcase.host2.eth[0].macLayer.preemptableMacLayer.fragmentFcsInserter incomingPackets:count 0
scalar FramePreemptionShowcase.host2.eth[0].macLayer.preemptableMacLayer.fragmentFcsInserter incomingPacketLengths:sum 0
scalar FramePreemptionShowcase.host2.eth[0].macLayer.preemptableMacLayer.fragmentFcsInserter flowIncomingPacketLengths:sum 0
scalar FramePreemptionShowcase.host2.eth[0].macLayer.preemptableMacLayer.outboundEmitter outgoingPackets:count 0
scalar FramePreemptionShowcase.host2.eth[0].macLayer.preemptableMacLayer.outboundEmitter outgoingPacketLengths:sum 0
scalar FramePreemptionShowcase.host2.eth[0].macLayer.preemptableMacLayer.outboundEmitter flowOutgoingPacketLengths:sum 0
scalar FramePreemptionShowcase.host2.eth[0].macLayer.preemptableMacLayer.outboundEmitter incomingPackets:count 0
scalar FramePreemptionShowcase.host2.eth[0].macLayer.preemptableMacLayer.outboundEmitter incomingPacketLengths:sum 0
scalar FramePreemptionShowcase.host2.eth[0].macLayer.preemptableMacLayer.outboundEmitter flowIncomingPacketLengths:sum 0
scalar FramePreemptionShowcase.host2.eth[0].macLayer.preemptableMacLayer.fcsInserter outgoingPackets:count 8832
scalar FramePreemptionShowcase.host2.eth[0].macLayer.preemptableMacLayer.fcsInserter outgoingPacketLengths:sum 88037376
scalar FramePreemptionShowcase.host2.eth[0].macLayer.preemptableMacLayer.fcsInserter flowOutgoingPacketLengths:sum 0
scalar FramePreemptionShowcase.host2.eth[0].macLayer.preemptableMacLayer.fcsInserter incomingPackets:count 8832
scalar FramePreemptionShowcase.host2.eth[0].macLayer.preemptableMacLayer.fcsInserter incomingPacketLengths:sum 87754752
scalar FramePreemptionShowcase.host2.eth[0].macLayer.preemptableMacLayer.fcsInserter flowIncomingPacketLengths:sum 0
scalar FramePreemptionShowcase.host2.eth[0].macLayer.preemptableMacLayer.fragmentFcsChecker outgoingPackets:count 9749
scalar FramePreemptionShowcase.host2.eth[0].macLayer.preemptableMacLayer.fragmentFcsChecker outgoingPacketLengths:sum 87754752
scalar FramePreemptionShowcase.host2.eth[0].macLayer.preemptableMacLayer.fragmentFcsChecker flowOutgoingPacketLengths:sum 0
scalar FramePreemptionShowcase.host2.eth[0].macLayer.preemptableMacLayer.fragmentFcsChecker incomingPackets:count 9749
scalar FramePreemptionShowcase.host2.eth[0].macLayer.preemptableMacLayer.fragmentFcsChecker incomingPacketLengths:sum 88066720
scalar FramePreemptionShowcase.host2.eth[0].macLayer.preemptableMacLayer.fragmentFcsChecker flowIncomingPacketLengths:sum 0
scalar FramePreemptionShowcase.host2.eth[0].macLayer.preemptableMacLayer.fragmentFcsChecker droppedPackets:count 0
scalar FramePreemptionShowcase.host2.eth[0].macLayer.preemptableMacLayer.fragmentFcsChecker droppedPacketLengths:sum 0
scalar FramePreemptionShowcase.host2.eth[0].macLayer.preemptableMacLayer.fragmentFcsChecker flowDroppedPacketLengths:sum 0
scalar FramePreemptionShowcase.host2.eth[0].macLayer.preemptableMacLayer.inboundEmitter outgoingPackets:count 9749
scalar FramePreemptionShowcase.host2.eth[0].macLayer.preemptableMacLayer.inboundEmitter outgoingPacketLengths:sum 88066720
scalar FramePreemptionShowcase.host2.eth[0].macLayer.preemptableMacLayer.inboundEmitter flowOutgoingPacketLengths:sum 0
scalar FramePreemptionShowcase.host2.eth[0].macLayer.preemptableMacLayer.inboundEmitter incomingPackets:count 9749
scalar FramePreemptionShowcase.host2.eth[0].macLayer.preemptableMacLayer.inboundEmitter incomingPacketLengths:sum 88066720
scalar FramePreemptionShowcase.host2.eth[0].macLayer.preemptableMacLayer.inboundEmitter flowIncomingPacketLengths:sum 0
scalar FramePreemptionShowcase.host2.eth[0].macLayer.scheduler packets:count 0
scalar FramePreemptionShowcase.host2.eth[0].macLayer.scheduler packetLengths:sum 0
scalar FramePreemptionShowcase.host2.eth[0].macLayer.preemptingServer incomingPackets:count 0
scalar FramePreemptionShowcase.host2.eth[0].macLayer.preemptingServer incomingPacketLengths:sum 0
scalar FramePreemptionShowcase.host2.eth[0].macLayer.preemptingServer outgoingPackets:count 0
scalar FramePreemptionShowcase.host2.eth[0].macLayer.preemptingServer outgoingPacketLengths:sum 0
scalar FramePreemptionShowcase.host2.eth[0].macLayer.inboundClassifier packets:count 10742
scalar FramePreemptionShowcase.host2.eth[0].macLayer.inboundClassifier packetLengths:sum 97964944
scalar FramePreemptionShowcase.host2.eth[0].macLayer.multiplexer packets:count 0
scalar FramePreemptionShowcase.host2.eth[0].macLayer.multiplexer packetLengths:sum 0
scalar FramePreemptionShowcase.host2.eth[0].phyLayer.c1 packets:count 0
scalar FramePreemptionShowcase.host2.eth[0].phyLayer.c1 packetLengths:sum 0
scalar FramePreemptionShowcase.host2.eth[0].phyLayer.phyHeaderInserter outgoingPackets:count 0
scalar FramePreemptionShowcase.host2.eth[0].phyLayer.phyHeaderInserter outgoingPacketLengths:sum 0
scalar FramePreemptionShowcase.host2.eth[0].phyLayer.phyHeaderInserter flowOutgoingPacketLengths:sum 0
scalar FramePreemptionShowcase.host2.eth[0].phyLayer.phyHeaderInserter incomingPackets:count 0
scalar FramePreemptionShowcase.host2.eth[0].phyLayer.phyHeaderInserter incomingPacketLengths:sum 0
scalar FramePreemptionShowcase.host2.eth[0].phyLayer.phyHeaderInserter flowIncomingPacketLengths:sum 0
scalar FramePreemptionShowcase.host2.eth[0].phyLayer.fragmentPhyHeaderInserter outgoingPackets:count 0
scalar FramePreemptionShowcase.host2.eth[0].phyLayer.fragmentPhyHeaderInserter outgoingPacketLengths:sum 0
scalar FramePreemptionShowcase.host2.eth[0].phyLayer.fragmentPhyHeaderInserter flowOutgoingPacketLengths:sum 0
scalar FramePreemptionShowcase.host2.eth[0].phyLayer.fragmentPhyHeaderInserter incomingPackets:count 0
scalar FramePreemptionShowcase.host2.eth[0].phyLayer.fragmentPhyHeaderInserter incomingPacketLengths:sum 0
scalar FramePreemptionShowcase.host2.eth[0].phyLayer.fragmentPhyHeaderInserter flowIncomingPacketLengths:sum 0
scalar FramePreemptionShowcase.host2.eth[0].phyLayer.m1 packets:count 0
scalar FramePreemptionShowcase.host2.eth[0].phyLayer.m1 packetLengths:sum 0
scalar FramePreemptionShowcase.host2.eth[0].phyLayer.outboundEmitter outgoingPackets:count 0
scalar FramePreemptionShowcase.host2.eth[0].phyLayer.outboundEmitter outgoingPacketLengths:sum 0
scalar FramePreemptionShowcase.host2.eth[0].phyLayer.outboundEmitter flowOutgoingPacketLengths:sum 0
scalar FramePreemptionShowcase.host2.eth[0].phyLayer.outboundEmitter incomingPackets:count 0
scalar FramePreemptionShowcase.host2.eth[0].phyLayer.outboundEmitter incomingPacketLengths:sum 0
scalar FramePreemptionShowcase.host2.eth[0].phyLayer.outboundEmitter flowIncomingPacketLengths:sum 0
scalar FramePreemptionShowcase.host2.eth[0].phyLayer.transmitter propagationTime 5e-08
scalar FramePreemptionShowcase.host2.eth[0].phyLayer.m2 packets:count 0
scalar FramePreemptionShowcase.host2.eth[0].phyLayer.m2 packetLengths:sum 0
scalar FramePreemptionShowcase.host2.eth[0].phyLayer.fragmentPhyHeaderChecker outgoingPackets:count 9749
scalar FramePreemptionShowcase.host2.eth[0].phyLayer.fragmentPhyHeaderChecker outgoingPacketLengths:sum 88066720
scalar FramePreemptionShowcase.host2.eth[0].phyLayer.fragmentPhyHeaderChecker flowOutgoingPacketLengths:sum 0
scalar FramePreemptionShowcase.host2.eth[0].phyLayer.fragmentPhyHeaderChecker incomingPackets:count 9749
scalar FramePreemptionShowcase.host2.eth[0].phyLayer.fragmentPhyHeaderChecker incomingPacketLengths:sum 88690656
scalar FramePreemptionShowcase.host2.eth[0].phyLayer.fragmentPhyHeaderChecker flowIncomingPacketLengths:sum 0
scalar FramePreemptionShowcase.host2.eth[0].phyLayer.fragmentPhyHeaderChecker droppedPackets:count 0
scalar FramePreemptionShowcase.host2.eth[0].phyLayer.fragmentPhyHeaderChecker droppedPacketLengths:sum 0
scalar FramePreemptionShowcase.host2.eth[0].phyLayer.fragmentPhyHeaderChecker flowDroppedPacketLengths:sum 0
scalar FramePreemptionShowcase.host2.eth[0].phyLayer.phyHeaderChecker outgoingPackets:count 993
scalar FramePreemptionShowcase.host2.eth[0].phyLayer.phyHeaderChecker outgoingPacketLengths:sum 9898224
scalar FramePreemptionShowcase.host2.eth[0].phyLayer.phyHeaderChecker flowOutgoingPacketLengths:sum 0
scalar FramePreemptionShowcase.host2.eth[0].phyLayer.phyHeaderChecker incomingPackets:count 993
scalar FramePreemptionShowcase.host2.eth[0].phyLayer.phyHeaderChecker incomingPacketLengths:sum 9961776
scalar FramePreemptionShowcase.host2.eth[0].phyLayer.phyHeaderChecker flowIncomingPacketLengths:sum 0
scalar FramePreemptionShowcase.host2.eth[0].phyLayer.phyHeaderChecker droppedPackets:count 0
scalar FramePreemptionShowcase.host2.eth[0].phyLayer.phyHeaderChecker droppedPacketLengths:sum 0
scalar FramePreemptionShowcase.host2.eth[0].phyLayer.phyHeaderChecker flowDroppedPacketLengths:sum 0
scalar FramePreemptionShowcase.host2.eth[0].phyLayer.c2 packets:count 10742
scalar FramePreemptionShowcase.host2.eth[0].phyLayer.c2 packetLengths:sum 98652432
scalar FramePreemptionShowcase.host2.eth[0].phyLayer.inboundEmitter outgoingPackets:count 10742
scalar FramePreemptionShowcase.host2.eth[0].phyLayer.inboundEmitter outgoingPacketLengths:sum 98652432
scalar FramePreemptionShowcase.host2.eth[0].phyLayer.inboundEmitter flowOutgoingPacketLengths:sum 0
scalar FramePreemptionShowcase.host2.eth[0].phyLayer.inboundEmitter incomingPackets:count 10742
scalar FramePreemptionShowcase.host2.eth[0].phyLayer.inboundEmitter incomingPacketLengths:sum 98652432
scalar FramePreemptionShowcase.host2.eth[0].phyLayer.inboundEmitter flowIncomingPacketLengths:sum 0
scalar FramePreemptionShowcase.host2.eth[0] packetDropInterfaceDown:count 0
scalar FramePreemptionShowcase.host2.eth[0] packetDropInterfaceDown:sum(packetBytes) 0
scalar FramePreemptionShowcase.host2.eth[0] packetDropNoCarrier:count 0
scalar FramePreemptionShowcase.host2.eth[0] packetDropNoCarrier:sum(packetBytes) 0
scalar FramePreemptionShowcase.host2.ipv4.ip packetDropAddressResolutionFailed:count 0
scalar FramePreemptionShowcase.host2.ipv4.ip packetDropAddressResolutionFailed:sum(packetBytes) 0
scalar FramePreemptionShowcase.host2.ipv4.ip packetDropHopLimitReached:count 0
scalar FramePreemptionShowcase.host2.ipv4.ip packetDropHopLimitReached:sum(packetBytes) 0
scalar FramePreemptionShowcase.host2.ipv4.ip packetDropForwardingDisabled:count 0
scalar FramePreemptionShowcase.host2.ipv4.ip packetDropForwardingDisabled:sum(packetBytes) 0
scalar FramePreemptionShowcase.host2.ipv4.ip packetDropLifetimeExpired:count 0
scalar FramePreemptionShowcase.host2.ipv4.ip packetDropLifetimeExpired:sum(packetBytes) 0
scalar FramePreemptionShowcase.host2.ipv4.ip packetDropNoInterfaceFound:count 0
scalar FramePreemptionShowcase.host2.ipv4.ip packetDropNoInterfaceFound:sum(packetBytes) 0
scalar FramePreemptionShowcase.host2.ipv4.ip packetDropNoRouteFound:count 0
scalar FramePreemptionShowcase.host2.ipv4.ip packetDropNoRouteFound:sum(packetBytes) 0
scalar FramePreemptionShowcase.host2.ipv4.ip packetDropUndefined:count 0
scalar FramePreemptionShowcase.host2.ipv4.ip packetDropUndefined:sum(packetBytes) 0
scalar FramePreemptionShowcase.host2.udp packetReceived:count 9825
scalar FramePreemptionShowcase.host2.udp packetReceived:sum(packetBytes) 11868600
scalar FramePreemptionShowcase.host2.udp packetSent:count 0
scalar FramePreemptionShowcase.host2.udp packetSent:sum(packetBytes) 0
scalar FramePreemptionShowcase.host2.udp passedUpPk:count 9825
scalar FramePreemptionShowcase.host2.udp droppedPkWrongPort:count 0
scalar FramePreemptionShowcase.host2.udp droppedPkBadChecksum:count 0
scalar FramePreemptionShowcase.host2.app[0].sink packets:count 8832
scalar FramePreemptionShowcase.host2.app[0].sink packetLengths:sum 84787200
scalar FramePreemptionShowcase.host2.app[0].sink droppedPackets:count 8832
scalar FramePreemptionShowcase.host2.app[0].sink droppedPacketLengths:sum 84787200
scalar FramePreemptionShowcase.host2.app[0].io "packets sent" 0
scalar FramePreemptionShowcase.host2.app[0].io "packets received" 8832
scalar FramePreemptionShowcase.host2.app[0].io packetReceived:count 8832
scalar FramePreemptionShowcase.host2.app[0].io packetReceived:sum(packetBytes) 10598400
scalar FramePreemptionShowcase.host2.app[0].io packetSent:count 0
scalar FramePreemptionShowcase.host2.app[0].io packetSent:sum(packetBytes) 0
scalar FramePreemptionShowcase.host2.app[1].sink packets:count 993
scalar FramePreemptionShowcase.host2.app[1].sink packetLengths:sum 9532800
scalar FramePreemptionShowcase.host2.app[1].sink droppedPackets:count 993
scalar FramePreemptionShowcase.host2.app[1].sink droppedPacketLengths:sum 9532800
scalar FramePreemptionShowcase.host2.app[1].io "packets sent" 0
scalar FramePreemptionShowcase.host2.app[1].io "packets received" 993
scalar FramePreemptionShowcase.host2.app[1].io packetReceived:count 993
scalar FramePreemptionShowcase.host2.app[1].io packetReceived:sum(packetBytes) 1191600
scalar FramePreemptionShowcase.host2.app[1].io packetSent:count 0
scalar FramePreemptionShowcase.host2.app[1].io packetSent:sum(packetBytes) 0
scalar FramePreemptionShowcase.host1.ethernet.macHeaderInserter outgoingPacketLengths:histogram:count 10729
scalar FramePreemptionShowcase.host1.ethernet.macHeaderInserter outgoingPacketLengths:histogram:sumweights 10729
scalar FramePreemptionShowcase.host1.ethernet.macHeaderInserter outgoingPacketLengths:histogram:mean 9936
scalar FramePreemptionShowcase.host1.ethernet.macHeaderInserter outgoingPacketLengths:histogram:stddev 0
scalar FramePreemptionShowcase.host1.ethernet.macHeaderInserter outgoingPacketLengths:histogram:min 9936
scalar FramePreemptionShowcase.host1.ethernet.macHeaderInserter outgoingPacketLengths:histogram:max 9936
scalar FramePreemptionShowcase.host1.ethernet.macHeaderInserter outgoingPacketLengths:histogram:numbins 2
scalar FramePreemptionShowcase.host1.ethernet.macHeaderInserter outgoingPacketLengths:histogram:rangemin 9935
scalar FramePreemptionShowcase.host1.ethernet.macHeaderInserter outgoingPacketLengths:histogram:rangemax 9937
scalar FramePreemptionShowcase.host1.ethernet.macHeaderInserter outgoingPacketLengths:histogram:underflows 0
scalar FramePreemptionShowcase.host1.ethernet.macHeaderInserter outgoingPacketLengths:histogram:overflows 0
scalar FramePreemptionShowcase.host1.ethernet.macHeaderInserter flowOutgoingPacketLengths:histogram:count 0
scalar FramePreemptionShowcase.host1.ethernet.macHeaderInserter flowOutgoingPacketLengths:histogram:sumweights 0
scalar FramePreemptionShowcase.host1.ethernet.macHeaderInserter flowOutgoingPacketLengths:histogram:mean -nan
scalar FramePreemptionShowcase.host1.ethernet.macHeaderInserter flowOutgoingPacketLengths:histogram:stddev nan
scalar FramePreemptionShowcase.host1.ethernet.macHeaderInserter flowOutgoingPacketLengths:histogram:min nan
scalar FramePreemptionShowcase.host1.ethernet.macHeaderInserter flowOutgoingPacketLengths:histogram:max nan
scalar FramePreemptionShowcase.host1.ethernet.macHeaderInserter flowOutgoingPacketLengths:histogram:numbins 1
scalar FramePreemptionShowcase.host1.ethernet.macHeaderInserter flowOutgoingPacketLengths:histogram:rangemin 0
scalar FramePreemptionShowcase.host1.ethernet.macHeaderInserter flowOutgoingPacketLengths:histogram:rangemax 1
scalar FramePreemptionShowcase.host1.ethernet.macHeaderInserter flowOutgoingPacketLengths:histogram:underflows 0
scalar FramePreemptionShowcase.host1.ethernet.macHeaderInserter flowOutgoingPacketLengths:histogram:overflows 0
scalar FramePreemptionShowcase.host1.ethernet.macHeaderInserter incomingPacketLengths:histogram:count 10729
scalar FramePreemptionShowcase.host1.ethernet.macHeaderInserter incomingPacketLengths:histogram:sumweights 10729
scalar FramePreemptionShowcase.host1.ethernet.macHeaderInserter incomingPacketLengths:histogram:mean 9824
scalar FramePreemptionShowcase.host1.ethernet.macHeaderInserter incomingPacketLengths:histogram:stddev 0
scalar FramePreemptionShowcase.host1.ethernet.macHeaderInserter incomingPacketLengths:histogram:min 9824
scalar FramePreemptionShowcase.host1.ethernet.macHeaderInserter incomingPacketLengths:histogram:max 9824
scalar FramePreemptionShowcase.host1.ethernet.macHeaderInserter incomingPacketLengths:histogram:numbins 2
scalar FramePreemptionShowcase.host1.ethernet.macHeaderInserter incomingPacketLengths:histogram:rangemin 9823
scalar FramePreemptionShowcase.host1.ethernet.macHeaderInserter incomingPacketLengths:histogram:rangemax 9825
scalar FramePreemptionShowcase.host1.ethernet.macHeaderInserter incomingPacketLengths:histogram:underflows 0
scalar FramePreemptionShowcase.host1.ethernet.macHeaderInserter incomingPacketLengths:histogram:overflows 0
scalar FramePreemptionShowcase.host1.ethernet.macHeaderInserter flowIncomingPacketLengths:histogram:count 0
scalar FramePreemptionShowcase.host1.ethernet.macHeaderInserter flowIncomingPacketLengths:histogram:sumweights 0
scalar FramePreemptionShowcase.host1.ethernet.macHeaderInserter flowIncomingPacketLengths:histogram:mean -nan
scalar FramePreemptionShowcase.host1.ethernet.macHeaderInserter flowIncomingPacketLengths:histogram:stddev nan
scalar FramePreemptionShowcase.host1.ethernet.macHeaderInserter flowIncomingPacketLengths:histogram:min nan
scalar FramePreemptionShowcase.host1.ethernet.macHeaderInserter flowIncomingPacketLengths:histogram:max nan
scalar FramePreemptionShowcase.host1.ethernet.macHeaderInserter flowIncomingPacketLengths:histogram:numbins 1
scalar FramePreemptionShowcase.host1.ethernet.macHeaderInserter flowIncomingPacketLengths:histogram:rangemin 0
scalar FramePreemptionShowcase.host1.ethernet.macHeaderInserter flowIncomingPacketLengths:histogram:rangemax 1
scalar FramePreemptionShowcase.host1.ethernet.macHeaderInserter flowIncomingPacketLengths:histogram:underflows 0
scalar FramePreemptionShowcase.host1.ethernet.macHeaderInserter flowIncomingPacketLengths:histogram:overflows 0
scalar FramePreemptionShowcase.host1.ethernet.paddingInserter outgoingPacketLengths:histogram:count 10729
scalar FramePreemptionShowcase.host1.ethernet.paddingInserter outgoingPacketLengths:histogram:sumweights 10729
scalar FramePreemptionShowcase.host1.ethernet.paddingInserter outgoingPacketLengths:histogram:mean 9936
scalar FramePreemptionShowcase.host1.ethernet.paddingInserter outgoingPacketLengths:histogram:stddev 0
scalar FramePreemptionShowcase.host1.ethernet.paddingInserter outgoingPacketLengths:histogram:min 9936
scalar FramePreemptionShowcase.host1.ethernet.paddingInserter outgoingPacketLengths:histogram:max 9936
scalar FramePreemptionShowcase.host1.ethernet.paddingInserter outgoingPacketLengths:histogram:numbins 2
scalar FramePreemptionShowcase.host1.ethernet.paddingInserter outgoingPacketLengths:histogram:rangemin 9935
scalar FramePreemptionShowcase.host1.ethernet.paddingInserter outgoingPacketLengths:histogram:rangemax 9937
scalar FramePreemptionShowcase.host1.ethernet.paddingInserter outgoingPacketLengths:histogram:underflows 0
scalar FramePreemptionShowcase.host1.ethernet.paddingInserter outgoingPacketLengths:histogram:overflows 0
scalar FramePreemptionShowcase.host1.ethernet.paddingInserter flowOutgoingPacketLengths:histogram:count 0
scalar FramePreemptionShowcase.host1.ethernet.paddingInserter flowOutgoingPacketLengths:histogram:sumweights 0
scalar FramePreemptionShowcase.host1.ethernet.paddingInserter flowOutgoingPacketLengths:histogram:mean -nan
scalar FramePreemptionShowcase.host1.ethernet.paddingInserter flowOutgoingPacketLengths:histogram:stddev nan
scalar FramePreemptionShowcase.host1.ethernet.paddingInserter flowOutgoingPacketLengths:histogram:min nan
scalar FramePreemptionShowcase.host1.ethernet.paddingInserter flowOutgoingPacketLengths:histogram:max nan
scalar FramePreemptionShowcase.host1.ethernet.paddingInserter flowOutgoingPacketLengths:histogram:numbins 1
scalar FramePreemptionShowcase.host1.ethernet.paddingInserter flowOutgoingPacketLengths:histogram:rangemin 0
scalar FramePreemptionShowcase.host1.ethernet.paddingInserter flowOutgoingPacketLengths:histogram:rangemax 1
scalar FramePreemptionShowcase.host1.ethernet.paddingInserter flowOutgoingPacketLengths:histogram:underflows 0
scalar FramePreemptionShowcase.host1.ethernet.paddingInserter flowOutgoingPacketLengths:histogram:overflows 0
scalar FramePreemptionShowcase.host1.ethernet.paddingInserter incomingPacketLengths:histogram:count 10729
scalar FramePreemptionShowcase.host1.ethernet.paddingInserter incomingPacketLengths:histogram:sumweights 10729
scalar FramePreemptionShowcase.host1.ethernet.paddingInserter incomingPacketLengths:histogram:mean 9936
scalar FramePreemptionShowcase.host1.ethernet.paddingInserter incomingPacketLengths:histogram:stddev 0
scalar FramePreemptionShowcase.host1.ethernet.paddingInserter incomingPacketLengths:histogram:min 9936
scalar FramePreemptionShowcase.host1.ethernet.paddingInserter incomingPacketLengths:histogram:max 9936
scalar FramePreemptionShowcase.host1.ethernet.paddingInserter incomingPacketLengths:histogram:numbins 2
scalar FramePreemptionShowcase.host1.ethernet.paddingInserter incomingPacketLengths:histogram:rangemin 9935
scalar FramePreemptionShowcase.host1.ethernet.paddingInserter incomingPacketLengths:histogram:rangemax 9937
scalar FramePreemptionShowcase.host1.ethernet.paddingInserter incomingPacketLengths:histogram:underflows 0
scalar FramePreemptionShowcase.host1.ethernet.paddingInserter incomingPacketLengths:histogram:overflows 0
scalar FramePreemptionShowcase.host1.ethernet.paddingInserter flowIncomingPacketLengths:histogram:count 0
scalar FramePreemptionShowcase.host1.ethernet.paddingInserter flowIncomingPacketLengths:histogram:sumweights 0
scalar FramePreemptionShowcase.host1.ethernet.paddingInserter flowIncomingPacketLengths:histogram:mean -nan
scalar FramePreemptionShowcase.host1.ethernet.paddingInserter flowIncomingPacketLengths:histogram:stddev nan
scalar FramePreemptionShowcase.host1.ethernet.paddingInserter flowIncomingPacketLengths:histogram:min nan
scalar FramePreemptionShowcase.host1.ethernet.paddingInserter flowIncomingPacketLengths:histogram:max nan
scalar FramePreemptionShowcase.host1.ethernet.paddingInserter flowIncomingPacketLengths:histogram:numbins 1
scalar FramePreemptionShowcase.host1.ethernet.paddingInserter flowIncomingPacketLengths:histogram:rangemin 0
scalar FramePreemptionShowcase.host1.ethernet.paddingInserter flowIncomingPacketLengths:histogram:rangemax 1
scalar FramePreemptionShowcase.host1.ethernet.paddingInserter flowIncomingPacketLengths:histogram:underflows 0
scalar FramePreemptionShowcase.host1.ethernet.paddingInserter flowIncomingPacketLengths:histogram:overflows 0
scalar FramePreemptionShowcase.host1.ethernet.fcsInserter outgoingPacketLengths:histogram:count 10729
scalar FramePreemptionShowcase.host1.ethernet.fcsInserter outgoingPacketLengths:histogram:sumweights 10729
scalar FramePreemptionShowcase.host1.ethernet.fcsInserter outgoingPacketLengths:histogram:mean 9968
scalar FramePreemptionShowcase.host1.ethernet.fcsInserter outgoingPacketLengths:histogram:stddev 0
scalar FramePreemptionShowcase.host1.ethernet.fcsInserter outgoingPacketLengths:histogram:min 9968
scalar FramePreemptionShowcase.host1.ethernet.fcsInserter outgoingPacketLengths:histogram:max 9968
scalar FramePreemptionShowcase.host1.ethernet.fcsInserter outgoingPacketLengths:histogram:numbins 2
scalar FramePreemptionShowcase.host1.ethernet.fcsInserter outgoingPacketLengths:histogram:rangemin 9967
scalar FramePreemptionShowcase.host1.ethernet.fcsInserter outgoingPacketLengths:histogram:rangemax 9969
scalar FramePreemptionShowcase.host1.ethernet.fcsInserter outgoingPacketLengths:histogram:underflows 0
scalar FramePreemptionShowcase.host1.ethernet.fcsInserter outgoingPacketLengths:histogram:overflows 0
scalar FramePreemptionShowcase.host1.ethernet.fcsInserter flowOutgoingPacketLengths:histogram:count 0
scalar FramePreemptionShowcase.host1.ethernet.fcsInserter flowOutgoingPacketLengths:histogram:sumweights 0
scalar FramePreemptionShowcase.host1.ethernet.fcsInserter flowOutgoingPacketLengths:histogram:mean -nan
scalar FramePreemptionShowcase.host1.ethernet.fcsInserter flowOutgoingPacketLengths:histogram:stddev nan
scalar FramePreemptionShowcase.host1.ethernet.fcsInserter flowOutgoingPacketLengths:histogram:min nan
scalar FramePreemptionShowcase.host1.ethernet.fcsInserter flowOutgoingPacketLengths:histogram:max nan
scalar FramePreemptionShowcase.host1.ethernet.fcsInserter flowOutgoingPacketLengths:histogram:numbins 1
scalar FramePreemptionShowcase.host1.ethernet.fcsInserter flowOutgoingPacketLengths:histogram:rangemin 0
scalar FramePreemptionShowcase.host1.ethernet.fcsInserter flowOutgoingPacketLengths:histogram:rangemax 1
scalar FramePreemptionShowcase.host1.ethernet.fcsInserter flowOutgoingPacketLengths:histogram:underflows 0
scalar FramePreemptionShowcase.host1.ethernet.fcsInserter flowOutgoingPacketLengths:histogram:overflows 0
scalar FramePreemptionShowcase.host1.ethernet.fcsInserter incomingPacketLengths:histogram:count 10729
scalar FramePreemptionShowcase.host1.ethernet.fcsInserter incomingPacketLengths:histogram:sumweights 10729
scalar FramePreemptionShowcase.host1.ethernet.fcsInserter incomingPacketLengths:histogram:mean 9936
scalar FramePreemptionShowcase.host1.ethernet.fcsInserter incomingPacketLengths:histogram:stddev 0
scalar FramePreemptionShowcase.host1.ethernet.fcsInserter incomingPacketLengths:histogram:min 9936
scalar FramePreemptionShowcase.host1.ethernet.fcsInserter incomingPacketLengths:histogram:max 9936
scalar FramePreemptionShowcase.host1.ethernet.fcsInserter incomingPacketLengths:histogram:numbins 2
scalar FramePreemptionShowcase.host1.ethernet.fcsInserter incomingPacketLengths:histogram:rangemin 9935
scalar FramePreemptionShowcase.host1.ethernet.fcsInserter incomingPacketLengths:histogram:rangemax 9937
scalar FramePreemptionShowcase.host1.ethernet.fcsInserter incomingPacketLengths:histogram:underflows 0
scalar FramePreemptionShowcase.host1.ethernet.fcsInserter incomingPacketLengths:histogram:overflows 0
scalar FramePreemptionShowcase.host1.ethernet.fcsInserter flowIncomingPacketLengths:histogram:count 0
scalar FramePreemptionShowcase.host1.ethernet.fcsInserter flowIncomingPacketLengths:histogram:sumweights 0
scalar FramePreemptionShowcase.host1.ethernet.fcsInserter flowIncomingPacketLengths:histogram:mean -nan
scalar FramePreemptionShowcase.host1.ethernet.fcsInserter flowIncomingPacketLengths:histogram:stddev nan
scalar FramePreemptionShowcase.host1.ethernet.fcsInserter flowIncomingPacketLengths:histogram:min nan
scalar FramePreemptionShowcase.host1.ethernet.fcsInserter flowIncomingPacketLengths:histogram:max nan
scalar FramePreemptionShowcase.host1.ethernet.fcsInserter flowIncomingPacketLengths:histogram:numbins 1
scalar FramePreemptionShowcase.host1.ethernet.fcsInserter flowIncomingPacketLengths:histogram:rangemin 0
scalar FramePreemptionShowcase.host1.ethernet.fcsInserter flowIncomingPacketLengths:histogram:rangemax 1
scalar FramePreemptionShowcase.host1.ethernet.fcsInserter flowIncomingPacketLengths:histogram:underflows 0
scalar FramePreemptionShowcase.host1.ethernet.fcsInserter flowIncomingPacketLengths:histogram:overflows 0
scalar FramePreemptionShowcase.host1.ethernet.macHeaderChecker outgoingPacketLengths:histogram:count 0
scalar FramePreemptionShowcase.host1.ethernet.macHeaderChecker outgoingPacketLengths:histogram:sumweights 0
scalar FramePreemptionShowcase.host1.ethernet.macHeaderChecker outgoingPacketLengths:histogram:mean -nan
scalar FramePreemptionShowcase.host1.ethernet.macHeaderChecker outgoingPacketLengths:histogram:stddev nan
scalar FramePreemptionShowcase.host1.ethernet.macHeaderChecker outgoingPacketLengths:histogram:min nan
scalar FramePreemptionShowcase.host1.ethernet.macHeaderChecker outgoingPacketLengths:histogram:max nan
scalar FramePreemptionShowcase.host1.ethernet.macHeaderChecker outgoingPacketLengths:histogram:numbins 1
scalar FramePreemptionShowcase.host1.ethernet.macHeaderChecker outgoingPacketLengths:histogram:rangemin 0
scalar FramePreemptionShowcase.host1.ethernet.macHeaderChecker outgoingPacketLengths:histogram:rangemax 1
scalar FramePreemptionShowcase.host1.ethernet.macHeaderChecker outgoingPacketLengths:histogram:underflows 0
scalar FramePreemptionShowcase.host1.ethernet.macHeaderChecker outgoingPacketLengths:histogram:overflows 0
scalar FramePreemptionShowcase.host1.ethernet.macHeaderChecker flowOutgoingPacketLengths:histogram:count 0
scalar FramePreemptionShowcase.host1.ethernet.macHeaderChecker flowOutgoingPacketLengths:histogram:sumweights 0
scalar FramePreemptionShowcase.host1.ethernet.macHeaderChecker flowOutgoingPacketLengths:histogram:mean -nan
scalar FramePreemptionShowcase.host1.ethernet.macHeaderChecker flowOutgoingPacketLengths:histogram:stddev nan
scalar FramePreemptionShowcase.host1.ethernet.macHeaderChecker flowOutgoingPacketLengths:histogram:min nan
scalar FramePreemptionShowcase.host1.ethernet.macHeaderChecker flowOutgoingPacketLengths:histogram:max nan
scalar FramePreemptionShowcase.host1.ethernet.macHeaderChecker flowOutgoingPacketLengths:histogram:numbins 1
scalar FramePreemptionShowcase.host1.ethernet.macHeaderChecker flowOutgoingPacketLengths:histogram:rangemin 0
scalar FramePreemptionShowcase.host1.ethernet.macHeaderChecker flowOutgoingPacketLengths:histogram:rangemax 1
scalar FramePreemptionShowcase.host1.ethernet.macHeaderChecker flowOutgoingPacketLengths:histogram:underflows 0
scalar FramePreemptionShowcase.host1.ethernet.macHeaderChecker flowOutgoingPacketLengths:histogram:overflows 0
scalar FramePreemptionShowcase.host1.ethernet.macHeaderChecker incomingPacketLengths:histogram:count 0
scalar FramePreemptionShowcase.host1.ethernet.macHeaderChecker incomingPacketLengths:histogram:sumweights 0
scalar FramePreemptionShowcase.host1.ethernet.macHeaderChecker incomingPacketLengths:histogram:mean -nan
scalar FramePreemptionShowcase.host1.ethernet.macHeaderChecker incomingPacketLengths:histogram:stddev nan
scalar FramePreemptionShowcase.host1.ethernet.macHeaderChecker incomingPacketLengths:histogram:min nan
scalar FramePreemptionShowcase.host1.ethernet.macHeaderChecker incomingPacketLengths:histogram:max nan
scalar FramePreemptionShowcase.host1.ethernet.macHeaderChecker incomingPacketLengths:histogram:numbins 1
scalar FramePreemptionShowcase.host1.ethernet.macHeaderChecker incomingPacketLengths:histogram:rangemin 0
scalar FramePreemptionShowcase.host1.ethernet.macHeaderChecker incomingPacketLengths:histogram:rangemax 1
scalar FramePreemptionShowcase.host1.ethernet.macHeaderChecker incomingPacketLengths:histogram:underflows 0
scalar FramePreemptionShowcase.host1.ethernet.macHeaderChecker incomingPacketLengths:histogram:overflows 0
scalar FramePreemptionShowcase.host1.ethernet.macHeaderChecker flowIncomingPacketLengths:histogram:count 0
scalar FramePreemptionShowcase.host1.ethernet.macHeaderChecker flowIncomingPacketLengths:histogram:sumweights 0
scalar FramePreemptionShowcase.host1.ethernet.macHeaderChecker flowIncomingPacketLengths:histogram:mean -nan
scalar FramePreemptionShowcase.host1.ethernet.macHeaderChecker flowIncomingPacketLengths:histogram:stddev nan
scalar FramePreemptionShowcase.host1.ethernet.macHeaderChecker flowIncomingPacketLengths:histogram:min nan
scalar FramePreemptionShowcase.host1.ethernet.macHeaderChecker flowIncomingPacketLengths:histogram:max nan
scalar FramePreemptionShowcase.host1.ethernet.macHeaderChecker flowIncomingPacketLengths:histogram:numbins 1
scalar FramePreemptionShowcase.host1.ethernet.macHeaderChecker flowIncomingPacketLengths:histogram:rangemin 0
scalar FramePreemptionShowcase.host1.ethernet.macHeaderChecker flowIncomingPacketLengths:histogram:rangemax 1
scalar FramePreemptionShowcase.host1.ethernet.macHeaderChecker flowIncomingPacketLengths:histogram:underflows 0
scalar FramePreemptionShowcase.host1.ethernet.macHeaderChecker flowIncomingPacketLengths:histogram:overflows 0
scalar FramePreemptionShowcase.host1.ethernet.macHeaderChecker droppedPacketLengths:histogram:count 0
scalar FramePreemptionShowcase.host1.ethernet.macHeaderChecker droppedPacketLengths:histogram:sumweights 0
scalar FramePreemptionShowcase.host1.ethernet.macHeaderChecker droppedPacketLengths:histogram:mean -nan
scalar FramePreemptionShowcase.host1.ethernet.macHeaderChecker droppedPacketLengths:histogram:stddev nan
scalar FramePreemptionShowcase.host1.ethernet.macHeaderChecker droppedPacketLengths:histogram:min nan
scalar FramePreemptionShowcase.host1.ethernet.macHeaderChecker droppedPacketLengths:histogram:max nan
scalar FramePreemptionShowcase.host1.ethernet.macHeaderChecker droppedPacketLengths:histogram:numbins 1
scalar FramePreemptionShowcase.host1.ethernet.macHeaderChecker droppedPacketLengths:histogram:rangemin 0
scalar FramePreemptionShowcase.host1.ethernet.macHeaderChecker droppedPacketLengths:histogram:rangemax 1
scalar FramePreemptionShowcase.host1.ethernet.macHeaderChecker droppedPacketLengths:histogram:underflows 0
scalar FramePreemptionShowcase.host1.ethernet.macHeaderChecker droppedPacketLengths:histogram:overflows 0
scalar FramePreemptionShowcase.host1.ethernet.macHeaderChecker flowDroppedPacketLengths:histogram:count 0
scalar FramePreemptionShowcase.host1.ethernet.macHeaderChecker flowDroppedPacketLengths:histogram:sumweights 0
scalar FramePreemptionShowcase.host1.ethernet.macHeaderChecker flowDroppedPacketLengths:histogram:mean -nan
scalar FramePreemptionShowcase.host1.ethernet.macHeaderChecker flowDroppedPacketLengths:histogram:stddev nan
scalar FramePreemptionShowcase.host1.ethernet.macHeaderChecker flowDroppedPacketLengths:histogram:min nan
scalar FramePreemptionShowcase.host1.ethernet.macHeaderChecker flowDroppedPacketLengths:histogram:max nan
scalar FramePreemptionShowcase.host1.ethernet.macHeaderChecker flowDroppedPacketLengths:histogram:numbins 1
scalar FramePreemptionShowcase.host1.ethernet.macHeaderChecker flowDroppedPacketLengths:histogram:rangemin 0
scalar FramePreemptionShowcase.host1.ethernet.macHeaderChecker flowDroppedPacketLengths:histogram:rangemax 1
scalar FramePreemptionShowcase.host1.ethernet.macHeaderChecker flowDroppedPacketLengths:histogram:underflows 0
scalar FramePreemptionShowcase.host1.ethernet.macHeaderChecker flowDroppedPacketLengths:histogram:overflows 0
scalar FramePreemptionShowcase.host1.ethernet.fcsChecker outgoingPacketLengths:histogram:count 0
scalar FramePreemptionShowcase.host1.ethernet.fcsChecker outgoingPacketLengths:histogram:sumweights 0
scalar FramePreemptionShowcase.host1.ethernet.fcsChecker outgoingPacketLengths:histogram:mean -nan
scalar FramePreemptionShowcase.host1.ethernet.fcsChecker outgoingPacketLengths:histogram:stddev nan
scalar FramePreemptionShowcase.host1.ethernet.fcsChecker outgoingPacketLengths:histogram:min nan
scalar FramePreemptionShowcase.host1.ethernet.fcsChecker outgoingPacketLengths:histogram:max nan
scalar FramePreemptionShowcase.host1.ethernet.fcsChecker outgoingPacketLengths:histogram:numbins 1
scalar FramePreemptionShowcase.host1.ethernet.fcsChecker outgoingPacketLengths:histogram:rangemin 0
scalar FramePreemptionShowcase.host1.ethernet.fcsChecker outgoingPacketLengths:histogram:rangemax 1
scalar FramePreemptionShowcase.host1.ethernet.fcsChecker outgoingPacketLengths:histogram:underflows 0
scalar FramePreemptionShowcase.host1.ethernet.fcsChecker outgoingPacketLengths:histogram:overflows 0
scalar FramePreemptionShowcase.host1.ethernet.fcsChecker flowOutgoingPacketLengths:histogram:count 0
scalar FramePreemptionShowcase.host1.ethernet.fcsChecker flowOutgoingPacketLengths:histogram:sumweights 0
scalar FramePreemptionShowcase.host1.ethernet.fcsChecker flowOutgoingPacketLengths:histogram:mean -nan
scalar FramePreemptionShowcase.host1.ethernet.fcsChecker flowOutgoingPacketLengths:histogram:stddev nan
scalar FramePreemptionShowcase.host1.ethernet.fcsChecker flowOutgoingPacketLengths:histogram:min nan
scalar FramePreemptionShowcase.host1.ethernet.fcsChecker flowOutgoingPacketLengths:histogram:max nan
scalar FramePreemptionShowcase.host1.ethernet.fcsChecker flowOutgoingPacketLengths:histogram:numbins 1
scalar FramePreemptionShowcase.host1.ethernet.fcsChecker flowOutgoingPacketLengths:histogram:rangemin 0
scalar FramePreemptionShowcase.host1.ethernet.fcsChecker flowOutgoingPacketLengths:histogram:rangemax 1
scalar FramePreemptionShowcase.host1.ethernet.fcsChecker flowOutgoingPacketLengths:histogram:underflows 0
scalar FramePreemptionShowcase.host1.ethernet.fcsChecker flowOutgoingPacketLengths:histogram:overflows 0
scalar FramePreemptionShowcase.host1.ethernet.fcsChecker incomingPacketLengths:histogram:count 0
scalar FramePreemptionShowcase.host1.ethernet.fcsChecker incomingPacketLengths:histogram:sumweights 0
scalar FramePreemptionShowcase.host1.ethernet.fcsChecker incomingPacketLengths:histogram:mean -nan
scalar FramePreemptionShowcase.host1.ethernet.fcsChecker incomingPacketLengths:histogram:stddev nan
scalar FramePreemptionShowcase.host1.ethernet.fcsChecker incomingPacketLengths:histogram:min nan
scalar FramePreemptionShowcase.host1.ethernet.fcsChecker incomingPacketLengths:histogram:max nan
scalar FramePreemptionShowcase.host1.ethernet.fcsChecker incomingPacketLengths:histogram:numbins 1
scalar FramePreemptionShowcase.host1.ethernet.fcsChecker incomingPacketLengths:histogram:rangemin 0
scalar FramePreemptionShowcase.host1.ethernet.fcsChecker incomingPacketLengths:histogram:rangemax 1
scalar FramePreemptionShowcase.host1.ethernet.fcsChecker incomingPacketLengths:histogram:underflows 0
scalar FramePreemptionShowcase.host1.ethernet.fcsChecker incomingPacketLengths:histogram:overflows 0
scalar FramePreemptionShowcase.host1.ethernet.fcsChecker flowIncomingPacketLengths:histogram:count 0
scalar FramePreemptionShowcase.host1.ethernet.fcsChecker flowIncomingPacketLengths:histogram:sumweights 0
scalar FramePreemptionShowcase.host1.ethernet.fcsChecker flowIncomingPacketLengths:histogram:mean -nan
scalar FramePreemptionShowcase.host1.ethernet.fcsChecker flowIncomingPacketLengths:histogram:stddev nan
scalar FramePreemptionShowcase.host1.ethernet.fcsChecker flowIncomingPacketLengths:histogram:min nan
scalar FramePreemptionShowcase.host1.ethernet.fcsChecker flowIncomingPacketLengths:histogram:max nan
scalar FramePreemptionShowcase.host1.ethernet.fcsChecker flowIncomingPacketLengths:histogram:numbins 1
scalar FramePreemptionShowcase.host1.ethernet.fcsChecker flowIncomingPacketLengths:histogram:rangemin 0
scalar FramePreemptionShowcase.host1.ethernet.fcsChecker flowIncomingPacketLengths:histogram:rangemax 1
scalar FramePreemptionShowcase.host1.ethernet.fcsChecker flowIncomingPacketLengths:histogram:underflows 0
scalar FramePreemptionShowcase.host1.ethernet.fcsChecker flowIncomingPacketLengths:histogram:overflows 0
scalar FramePreemptionShowcase.host1.ethernet.fcsChecker droppedPacketLengths:histogram:count 0
scalar FramePreemptionShowcase.host1.ethernet.fcsChecker droppedPacketLengths:histogram:sumweights 0
scalar FramePreemptionShowcase.host1.ethernet.fcsChecker droppedPacketLengths:histogram:mean -nan
scalar FramePreemptionShowcase.host1.ethernet.fcsChecker droppedPacketLengths:histogram:stddev nan
scalar FramePreemptionShowcase.host1.ethernet.fcsChecker droppedPacketLengths:histogram:min nan
scalar FramePreemptionShowcase.host1.ethernet.fcsChecker droppedPacketLengths:histogram:max nan
scalar FramePreemptionShowcase.host1.ethernet.fcsChecker droppedPacketLengths:histogram:numbins 1
scalar FramePreemptionShowcase.host1.ethernet.fcsChecker droppedPacketLengths:histogram:rangemin 0
scalar FramePreemptionShowcase.host1.ethernet.fcsChecker droppedPacketLengths:histogram:rangemax 1
scalar FramePreemptionShowcase.host1.ethernet.fcsChecker droppedPacketLengths:histogram:underflows 0
scalar FramePreemptionShowcase.host1.ethernet.fcsChecker droppedPacketLengths:histogram:overflows 0
scalar FramePreemptionShowcase.host1.ethernet.fcsChecker flowDroppedPacketLengths:histogram:count 0
scalar FramePreemptionShowcase.host1.ethernet.fcsChecker flowDroppedPacketLengths:histogram:sumweights 0
scalar FramePreemptionShowcase.host1.ethernet.fcsChecker flowDroppedPacketLengths:histogram:mean -nan
scalar FramePreemptionShowcase.host1.ethernet.fcsChecker flowDroppedPacketLengths:histogram:stddev nan
scalar FramePreemptionShowcase.host1.ethernet.fcsChecker flowDroppedPacketLengths:histogram:min nan
scalar FramePreemptionShowcase.host1.ethernet.fcsChecker flowDroppedPacketLengths:histogram:max nan
scalar FramePreemptionShowcase.host1.ethernet.fcsChecker flowDroppedPacketLengths:histogram:numbins 1
scalar FramePreemptionShowcase.host1.ethernet.fcsChecker flowDroppedPacketLengths:histogram:rangemin 0
scalar FramePreemptionShowcase.host1.ethernet.fcsChecker flowDroppedPacketLengths:histogram:rangemax 1
scalar FramePreemptionShowcase.host1.ethernet.fcsChecker flowDroppedPacketLengths:histogram:underflows 0
scalar FramePreemptionShowcase.host1.ethernet.fcsChecker flowDroppedPacketLengths:histogram:overflows 0
scalar FramePreemptionShowcase.host1.eth[0].macLayer.outboundClassifier packetLengths:histogram:count 10729
scalar FramePreemptionShowcase.host1.eth[0].macLayer.outboundClassifier packetLengths:histogram:sumweights 10729
scalar FramePreemptionShowcase.host1.eth[0].macLayer.outboundClassifier packetLengths:histogram:mean 9968
scalar FramePreemptionShowcase.host1.eth[0].macLayer.outboundClassifier packetLengths:histogram:stddev 0
scalar FramePreemptionShowcase.host1.eth[0].macLayer.outboundClassifier packetLengths:histogram:min 9968
scalar FramePreemptionShowcase.host1.eth[0].macLayer.outboundClassifier packetLengths:histogram:max 9968
scalar FramePreemptionShowcase.host1.eth[0].macLayer.outboundClassifier packetLengths:histogram:numbins 2
scalar FramePreemptionShowcase.host1.eth[0].macLayer.outboundClassifier packetLengths:histogram:rangemin 9967
scalar FramePreemptionShowcase.host1.eth[0].macLayer.outboundClassifier packetLengths:histogram:rangemax 9969
scalar FramePreemptionShowcase.host1.eth[0].macLayer.outboundClassifier packetLengths:histogram:underflows 0
scalar FramePreemptionShowcase.host1.eth[0].macLayer.outboundClassifier packetLengths:histogram:overflows 0
scalar FramePreemptionShowcase.host1.eth[0].macLayer.expressMacLayer.queue queueingTime:histogram:count 993
scalar FramePreemptionShowcase.host1.eth[0].macLayer.expressMacLayer.queue queueingTime:histogram:sumweights 993
scalar FramePreemptionShowcase.host1.eth[0].macLayer.expressMacLayer.queue queueingTime:histogram:mean 2.9962563182276e-06
scalar FramePreemptionShowcase.host1.eth[0].macLayer.expressMacLayer.queue queueingTime:histogram:stddev 7.9774115321658e-06
scalar FramePreemptionShowcase.host1.eth[0].macLayer.expressMacLayer.queue queueingTime:histogram:min 0
scalar FramePreemptionShowcase.host1.eth[0].macLayer.expressMacLayer.queue queueingTime:histogram:max 9.9395725e-05
scalar FramePreemptionShowcase.host1.eth[0].macLayer.expressMacLayer.queue queueingTime:histogram:numbins 50
scalar FramePreemptionShowcase.host1.eth[0].macLayer.expressMacLayer.queue queueingTime:histogram:rangemin 0
scalar FramePreemptionShowcase.host1.eth[0].macLayer.expressMacLayer.queue queueingTime:histogram:rangemax 0.0001
scalar FramePreemptionShowcase.host1.eth[0].macLayer.expressMacLayer.queue queueingTime:histogram:underflows 0
scalar FramePreemptionShowcase.host1.eth[0].macLayer.expressMacLayer.queue queueingTime:histogram:overflows 0
scalar FramePreemptionShowcase.host1.eth[0].macLayer.expressMacLayer.queue outgoingPacketLengths:histogram:count 993
scalar FramePreemptionShowcase.host1.eth[0].macLayer.expressMacLayer.queue outgoingPacketLengths:histogram:sumweights 993
scalar FramePreemptionShowcase.host1.eth[0].macLayer.expressMacLayer.queue outgoingPacketLengths:histogram:mean 9968
scalar FramePreemptionShowcase.host1.eth[0].macLayer.expressMacLayer.queue outgoingPacketLengths:histogram:stddev 0
[...]
scalar FramePreemptionShowcase.host2.udp passedUpPk:vector(count):min 0
scalar FramePreemptionShowcase.host2.udp passedUpPk:vector(count):max 9825
scalar FramePreemptionShowcase.host2.udp passedUpPk:vector(count):starttime 0
scalar FramePreemptionShowcase.host2.udp passedUpPk:vector(count):endtime 0.999972179107
scalar FramePreemptionShowcase.host2.udp droppedPkWrongPort:vector(count):count 1
scalar FramePreemptionShowcase.host2.udp droppedPkWrongPort:vector(count):sum 0
scalar FramePreemptionShowcase.host2.udp droppedPkWrongPort:vector(count):sumweights 1
scalar FramePreemptionShowcase.host2.udp droppedPkWrongPort:vector(count):mean 0
scalar FramePreemptionShowcase.host2.udp droppedPkWrongPort:vector(count):stddev nan
scalar FramePreemptionShowcase.host2.udp droppedPkWrongPort:vector(count):min 0
scalar FramePreemptionShowcase.host2.udp droppedPkWrongPort:vector(count):max 0
scalar FramePreemptionShowcase.host2.udp droppedPkWrongPort:vector(count):starttime 0
scalar FramePreemptionShowcase.host2.udp droppedPkWrongPort:vector(count):endtime 0
scalar FramePreemptionShowcase.host2.udp droppedPkBadChecksum:vector(count):count 1
scalar FramePreemptionShowcase.host2.udp droppedPkBadChecksum:vector(count):sum 0
scalar FramePreemptionShowcase.host2.udp droppedPkBadChecksum:vector(count):sumweights 1
scalar FramePreemptionShowcase.host2.udp droppedPkBadChecksum:vector(count):mean 0
scalar FramePreemptionShowcase.host2.udp droppedPkBadChecksum:vector(count):stddev nan
scalar FramePreemptionShowcase.host2.udp droppedPkBadChecksum:vector(count):min 0
scalar FramePreemptionShowcase.host2.udp droppedPkBadChecksum:vector(count):max 0
scalar FramePreemptionShowcase.host2.udp droppedPkBadChecksum:vector(count):starttime 0
scalar FramePreemptionShowcase.host2.udp droppedPkBadChecksum:vector(count):endtime 0
scalar FramePreemptionShowcase.host2.app[0].sink droppedPacketLengths:vector:count 8832
scalar FramePreemptionShowcase.host2.app[0].sink droppedPacketLengths:vector:sum 84787200
scalar FramePreemptionShowcase.host2.app[0].sink droppedPacketLengths:vector:sumweights 8832
scalar FramePreemptionShowcase.host2.app[0].sink droppedPacketLengths:vector:mean 9600
scalar FramePreemptionShowcase.host2.app[0].sink droppedPacketLengths:vector:stddev 0
scalar FramePreemptionShowcase.host2.app[0].sink droppedPacketLengths:vector:min 9600
scalar FramePreemptionShowcase.host2.app[0].sink droppedPacketLengths:vector:max 9600
scalar FramePreemptionShowcase.host2.app[0].sink droppedPacketLengths:vector:starttime 0.00020165
scalar FramePreemptionShowcase.host2.app[0].sink droppedPacketLengths:vector:endtime 0.999972179107
scalar FramePreemptionShowcase.host2.app[0].sink droppedDataRate:vector:count 89
scalar FramePreemptionShowcase.host2.app[0].sink droppedDataRate:vector:sum 7548978873.1338
scalar FramePreemptionShowcase.host2.app[0].sink droppedDataRate:vector:sumweights 89
scalar FramePreemptionShowcase.host2.app[0].sink droppedDataRate:vector:mean 84819987.338582
scalar FramePreemptionShowcase.host2.app[0].sink droppedDataRate:vector:stddev 1453567.6418793
scalar FramePreemptionShowcase.host2.app[0].sink droppedDataRate:vector:min 81401793.780849
scalar FramePreemptionShowcase.host2.app[0].sink droppedDataRate:vector:max 87657784.01122
scalar FramePreemptionShowcase.host2.app[0].sink droppedDataRate:vector:starttime 0.011793351908
scalar FramePreemptionShowcase.host2.app[0].sink droppedDataRate:vector:endtime 1
scalar FramePreemptionShowcase.host2.app[0].sink packetLengths:vector:count 8832
scalar FramePreemptionShowcase.host2.app[0].sink packetLengths:vector:sum 84787200
scalar FramePreemptionShowcase.host2.app[0].sink packetLengths:vector:sumweights 8832
scalar FramePreemptionShowcase.host2.app[0].sink packetLengths:vector:mean 9600
scalar FramePreemptionShowcase.host2.app[0].sink packetLengths:vector:stddev 0
scalar FramePreemptionShowcase.host2.app[0].sink packetLengths:vector:min 9600
scalar FramePreemptionShowcase.host2.app[0].sink packetLengths:vector:max 9600
scalar FramePreemptionShowcase.host2.app[0].sink packetLengths:vector:starttime 0.00020165
scalar FramePreemptionShowcase.host2.app[0].sink packetLengths:vector:endtime 0.999972179107
scalar FramePreemptionShowcase.host2.app[0].sink dataRate:vector:count 89
scalar FramePreemptionShowcase.host2.app[0].sink dataRate:vector:sum 7548978873.1338
scalar FramePreemptionShowcase.host2.app[0].sink dataRate:vector:sumweights 89
scalar FramePreemptionShowcase.host2.app[0].sink dataRate:vector:mean 84819987.338582
scalar FramePreemptionShowcase.host2.app[0].sink dataRate:vector:stddev 1453567.6418793
scalar FramePreemptionShowcase.host2.app[0].sink dataRate:vector:min 81401793.780849
scalar FramePreemptionShowcase.host2.app[0].sink dataRate:vector:max 87657784.01122
scalar FramePreemptionShowcase.host2.app[0].sink dataRate:vector:starttime 0.011793351908
scalar FramePreemptionShowcase.host2.app[0].sink dataRate:vector:endtime 1
scalar FramePreemptionShowcase.host2.app[0].sink meanBitLifeTimePerPacket:vector:count 8832
scalar FramePreemptionShowcase.host2.app[0].sink meanBitLifeTimePerPacket:vector:sum 3.665563360198
scalar FramePreemptionShowcase.host2.app[0].sink meanBitLifeTimePerPacket:vector:sumweights 8832
scalar FramePreemptionShowcase.host2.app[0].sink meanBitLifeTimePerPacket:vector:mean 0.00041503208335575
scalar FramePreemptionShowcase.host2.app[0].sink meanBitLifeTimePerPacket:vector:stddev 0.00011133761472608
scalar FramePreemptionShowcase.host2.app[0].sink meanBitLifeTimePerPacket:vector:min 0.00010037
scalar FramePreemptionShowcase.host2.app[0].sink meanBitLifeTimePerPacket:vector:max 0.000796389991
scalar FramePreemptionShowcase.host2.app[0].sink meanBitLifeTimePerPacket:vector:starttime 0.00020165
scalar FramePreemptionShowcase.host2.app[0].sink meanBitLifeTimePerPacket:vector:endtime 0.999972179107
scalar FramePreemptionShowcase.host2.app[0].sink packetLifeTime:vector:count 8832
scalar FramePreemptionShowcase.host2.app[0].sink packetLifeTime:vector:sum nan
scalar FramePreemptionShowcase.host2.app[0].sink packetLifeTime:vector:sumweights 8832
scalar FramePreemptionShowcase.host2.app[0].sink packetLifeTime:vector:mean nan
scalar FramePreemptionShowcase.host2.app[0].sink packetLifeTime:vector:stddev nan
scalar FramePreemptionShowcase.host2.app[0].sink packetLifeTime:vector:min 0.000430830918
scalar FramePreemptionShowcase.host2.app[0].sink packetLifeTime:vector:max 0.000557933445
scalar FramePreemptionShowcase.host2.app[0].sink packetLifeTime:vector:starttime 0.00020165
scalar FramePreemptionShowcase.host2.app[0].sink packetLifeTime:vector:endtime 0.999972179107
scalar FramePreemptionShowcase.host2.app[0].sink packetJitter:vector:count 8832
scalar FramePreemptionShowcase.host2.app[0].sink packetJitter:vector:sum 0.000430830918
scalar FramePreemptionShowcase.host2.app[0].sink packetJitter:vector:sumweights 8832
scalar FramePreemptionShowcase.host2.app[0].sink packetJitter:vector:mean 4.8780674592391e-08
scalar FramePreemptionShowcase.host2.app[0].sink packetJitter:vector:stddev 6.0697549695813e-05
scalar FramePreemptionShowcase.host2.app[0].sink packetJitter:vector:min -0.000295708968
scalar FramePreemptionShowcase.host2.app[0].sink packetJitter:vector:max 0.000297674269
scalar FramePreemptionShowcase.host2.app[0].sink packetJitter:vector:starttime 0.00020165
scalar FramePreemptionShowcase.host2.app[0].sink packetJitter:vector:endtime 0.999972179107
scalar FramePreemptionShowcase.host2.app[0].sink packetDelayDifferenceToMean:vector:count 8832
scalar FramePreemptionShowcase.host2.app[0].sink packetDelayDifferenceToMean:vector:sum -0.067283838302841
scalar FramePreemptionShowcase.host2.app[0].sink packetDelayDifferenceToMean:vector:sumweights 8832
scalar FramePreemptionShowcase.host2.app[0].sink packetDelayDifferenceToMean:vector:mean -7.6181882136369e-06
scalar FramePreemptionShowcase.host2.app[0].sink packetDelayDifferenceToMean:vector:stddev 0.00011102218921362
scalar FramePreemptionShowcase.host2.app[0].sink packetDelayDifferenceToMean:vector:min -0.00038144799842706
scalar FramePreemptionShowcase.host2.app[0].sink packetDelayDifferenceToMean:vector:max 0.00031637623612175
scalar FramePreemptionShowcase.host2.app[0].sink packetDelayDifferenceToMean:vector:starttime 0.00020165
scalar FramePreemptionShowcase.host2.app[0].sink packetDelayDifferenceToMean:vector:endtime 0.999972179107
scalar FramePreemptionShowcase.host2.app[0].sink packetDelayVariation:vector:count 8832
scalar FramePreemptionShowcase.host2.app[0].sink packetDelayVariation:vector:sum 1.0091514228132
scalar FramePreemptionShowcase.host2.app[0].sink packetDelayVariation:vector:sumweights 8832
scalar FramePreemptionShowcase.host2.app[0].sink packetDelayVariation:vector:mean 0.00011426080421345
scalar FramePreemptionShowcase.host2.app[0].sink packetDelayVariation:vector:stddev 4.6797361273178e-06
scalar FramePreemptionShowcase.host2.app[0].sink packetDelayVariation:vector:min 0
scalar FramePreemptionShowcase.host2.app[0].sink packetDelayVariation:vector:max 0.00013196333151564
scalar FramePreemptionShowcase.host2.app[0].sink packetDelayVariation:vector:starttime 0.00020165
scalar FramePreemptionShowcase.host2.app[0].sink packetDelayVariation:vector:endtime 0.999972179107
scalar FramePreemptionShowcase.host2.app[0].io packetSent:vector(packetBytes):count 0
scalar FramePreemptionShowcase.host2.app[0].io packetSent:vector(packetBytes):sum 0
scalar FramePreemptionShowcase.host2.app[0].io packetSent:vector(packetBytes):sumweights 0
scalar FramePreemptionShowcase.host2.app[0].io packetSent:vector(packetBytes):mean -nan
scalar FramePreemptionShowcase.host2.app[0].io packetSent:vector(packetBytes):stddev nan
scalar FramePreemptionShowcase.host2.app[0].io packetSent:vector(packetBytes):min inf
scalar FramePreemptionShowcase.host2.app[0].io packetSent:vector(packetBytes):max -inf
scalar FramePreemptionShowcase.host2.app[0].io packetSent:vector(packetBytes):starttime nan
scalar FramePreemptionShowcase.host2.app[0].io packetSent:vector(packetBytes):endtime nan
scalar FramePreemptionShowcase.host2.app[0].io packetReceived:vector(packetBytes):count 8832
scalar FramePreemptionShowcase.host2.app[0].io packetReceived:vector(packetBytes):sum 10598400
scalar FramePreemptionShowcase.host2.app[0].io packetReceived:vector(packetBytes):sumweights 8832
scalar FramePreemptionShowcase.host2.app[0].io packetReceived:vector(packetBytes):mean 1200
scalar FramePreemptionShowcase.host2.app[0].io packetReceived:vector(packetBytes):stddev 0
scalar FramePreemptionShowcase.host2.app[0].io packetReceived:vector(packetBytes):min 1200
scalar FramePreemptionShowcase.host2.app[0].io packetReceived:vector(packetBytes):max 1200
scalar FramePreemptionShowcase.host2.app[0].io packetReceived:vector(packetBytes):starttime 0.00020165
scalar FramePreemptionShowcase.host2.app[0].io packetReceived:vector(packetBytes):endtime 0.999972179107
scalar FramePreemptionShowcase.host2.app[1].sink droppedPacketLengths:vector:count 993
scalar FramePreemptionShowcase.host2.app[1].sink droppedPacketLengths:vector:sum 9532800
scalar FramePreemptionShowcase.host2.app[1].sink droppedPacketLengths:vector:sumweights 993
scalar FramePreemptionShowcase.host2.app[1].sink droppedPacketLengths:vector:mean 9600
scalar FramePreemptionShowcase.host2.app[1].sink droppedPacketLengths:vector:stddev 0
scalar FramePreemptionShowcase.host2.app[1].sink droppedPacketLengths:vector:min 9600
scalar FramePreemptionShowcase.host2.app[1].sink droppedPacketLengths:vector:max 9600
scalar FramePreemptionShowcase.host2.app[1].sink droppedPacketLengths:vector:starttime 0.00010037
scalar FramePreemptionShowcase.host2.app[1].sink droppedPacketLengths:vector:endtime 0.999528659107
scalar FramePreemptionShowcase.host2.app[1].sink droppedDataRate:vector:count 11
scalar FramePreemptionShowcase.host2.app[1].sink droppedDataRate:vector:sum 104934502.51707
scalar FramePreemptionShowcase.host2.app[1].sink droppedDataRate:vector:sumweights 11
scalar FramePreemptionShowcase.host2.app[1].sink droppedDataRate:vector:mean 9539500.2288244
scalar FramePreemptionShowcase.host2.app[1].sink droppedDataRate:vector:stddev 513112.61531453
scalar FramePreemptionShowcase.host2.app[1].sink droppedDataRate:vector:min 8928000
scalar FramePreemptionShowcase.host2.app[1].sink droppedDataRate:vector:max 10444996.460563
scalar FramePreemptionShowcase.host2.app[1].sink droppedDataRate:vector:starttime 0.091910035932
scalar FramePreemptionShowcase.host2.app[1].sink droppedDataRate:vector:endtime 1
scalar FramePreemptionShowcase.host2.app[1].sink packetLengths:vector:count 993
scalar FramePreemptionShowcase.host2.app[1].sink packetLengths:vector:sum 9532800
scalar FramePreemptionShowcase.host2.app[1].sink packetLengths:vector:sumweights 993
scalar FramePreemptionShowcase.host2.app[1].sink packetLengths:vector:mean 9600
scalar FramePreemptionShowcase.host2.app[1].sink packetLengths:vector:stddev 0
scalar FramePreemptionShowcase.host2.app[1].sink packetLengths:vector:min 9600
scalar FramePreemptionShowcase.host2.app[1].sink packetLengths:vector:max 9600
scalar FramePreemptionShowcase.host2.app[1].sink packetLengths:vector:starttime 0.00010037
scalar FramePreemptionShowcase.host2.app[1].sink packetLengths:vector:endtime 0.999528659107
scalar FramePreemptionShowcase.host2.app[1].sink dataRate:vector:count 11
scalar FramePreemptionShowcase.host2.app[1].sink dataRate:vector:sum 104934502.51707
scalar FramePreemptionShowcase.host2.app[1].sink dataRate:vector:sumweights 11
scalar FramePreemptionShowcase.host2.app[1].sink dataRate:vector:mean 9539500.2288244
scalar FramePreemptionShowcase.host2.app[1].sink dataRate:vector:stddev 513112.61531453
scalar FramePreemptionShowcase.host2.app[1].sink dataRate:vector:min 8928000
scalar FramePreemptionShowcase.host2.app[1].sink dataRate:vector:max 10444996.460563
scalar FramePreemptionShowcase.host2.app[1].sink dataRate:vector:starttime 0.091910035932
scalar FramePreemptionShowcase.host2.app[1].sink dataRate:vector:endtime 1
scalar FramePreemptionShowcase.host2.app[1].sink meanBitLifeTimePerPacket:vector:count 993
scalar FramePreemptionShowcase.host2.app[1].sink meanBitLifeTimePerPacket:vector:sum 0.102642692524
scalar FramePreemptionShowcase.host2.app[1].sink meanBitLifeTimePerPacket:vector:sumweights 993
scalar FramePreemptionShowcase.host2.app[1].sink meanBitLifeTimePerPacket:vector:mean 0.00010336625631823
scalar FramePreemptionShowcase.host2.app[1].sink meanBitLifeTimePerPacket:vector:stddev 7.9774115321651e-06
scalar FramePreemptionShowcase.host2.app[1].sink meanBitLifeTimePerPacket:vector:min 0.00010037
scalar FramePreemptionShowcase.host2.app[1].sink meanBitLifeTimePerPacket:vector:max 0.000199765725
scalar FramePreemptionShowcase.host2.app[1].sink meanBitLifeTimePerPacket:vector:starttime 0.00010037
scalar FramePreemptionShowcase.host2.app[1].sink meanBitLifeTimePerPacket:vector:endtime 0.999528659107
scalar FramePreemptionShowcase.host2.app[1].sink packetLifeTime:vector:count 993
scalar FramePreemptionShowcase.host2.app[1].sink packetLifeTime:vector:sum 0.102642692524
scalar FramePreemptionShowcase.host2.app[1].sink packetLifeTime:vector:sumweights 993
scalar FramePreemptionShowcase.host2.app[1].sink packetLifeTime:vector:mean 0.00010336625631823
scalar FramePreemptionShowcase.host2.app[1].sink packetLifeTime:vector:stddev 7.9774115321651e-06
scalar FramePreemptionShowcase.host2.app[1].sink packetLifeTime:vector:min 0.00010037
scalar FramePreemptionShowcase.host2.app[1].sink packetLifeTime:vector:max 0.000199765725
scalar FramePreemptionShowcase.host2.app[1].sink packetLifeTime:vector:starttime 0.00010037
scalar FramePreemptionShowcase.host2.app[1].sink packetLifeTime:vector:endtime 0.999528659107
scalar FramePreemptionShowcase.host2.app[1].sink packetJitter:vector:count 993
scalar FramePreemptionShowcase.host2.app[1].sink packetJitter:vector:sum 0.000102343126
scalar FramePreemptionShowcase.host2.app[1].sink packetJitter:vector:sumweights 993
scalar FramePreemptionShowcase.host2.app[1].sink packetJitter:vector:mean 1.0306457804632e-07
scalar FramePreemptionShowcase.host2.app[1].sink packetJitter:vector:stddev 1.1813004984516e-05
scalar FramePreemptionShowcase.host2.app[1].sink packetJitter:vector:min -9.7433239e-05
scalar FramePreemptionShowcase.host2.app[1].sink packetJitter:vector:max 0.00010037
scalar FramePreemptionShowcase.host2.app[1].sink packetJitter:vector:starttime 0.00010037
scalar FramePreemptionShowcase.host2.app[1].sink packetJitter:vector:endtime 0.999528659107
scalar FramePreemptionShowcase.host2.app[1].sink packetDelayDifferenceToMean:vector:count 993
scalar FramePreemptionShowcase.host2.app[1].sink packetDelayDifferenceToMean:vector:sum -0.00015003857465863
scalar FramePreemptionShowcase.host2.app[1].sink packetDelayDifferenceToMean:vector:sumweights 993
scalar FramePreemptionShowcase.host2.app[1].sink packetDelayDifferenceToMean:vector:mean -1.5109624839741e-07
scalar FramePreemptionShowcase.host2.app[1].sink packetDelayDifferenceToMean:vector:stddev 7.9637532053533e-06
scalar FramePreemptionShowcase.host2.app[1].sink packetDelayDifferenceToMean:vector:min -9.6115483668493e-05
scalar FramePreemptionShowcase.host2.app[1].sink packetDelayDifferenceToMean:vector:max 3.001682186863e-06
scalar FramePreemptionShowcase.host2.app[1].sink packetDelayDifferenceToMean:vector:starttime 0.00010037
scalar FramePreemptionShowcase.host2.app[1].sink packetDelayDifferenceToMean:vector:endtime 0.999528659107
scalar FramePreemptionShowcase.host2.app[1].sink packetDelayVariation:vector:count 993
scalar FramePreemptionShowcase.host2.app[1].sink packetDelayVariation:vector:sum 0.0068717371946993
scalar FramePreemptionShowcase.host2.app[1].sink packetDelayVariation:vector:sumweights 993
scalar FramePreemptionShowcase.host2.app[1].sink packetDelayVariation:vector:mean 6.9201784438059e-06
scalar FramePreemptionShowcase.host2.app[1].sink packetDelayVariation:vector:stddev 2.2900783340911e-06
scalar FramePreemptionShowcase.host2.app[1].sink packetDelayVariation:vector:min 0
scalar FramePreemptionShowcase.host2.app[1].sink packetDelayVariation:vector:max 9.8776526118593e-06
scalar FramePreemptionShowcase.host2.app[1].sink packetDelayVariation:vector:starttime 0.00010037
scalar FramePreemptionShowcase.host2.app[1].sink packetDelayVariation:vector:endtime 0.999528659107
scalar FramePreemptionShowcase.host2.app[1].io packetSent:vector(packetBytes):count 0
scalar FramePreemptionShowcase.host2.app[1].io packetSent:vector(packetBytes):sum 0
scalar FramePreemptionShowcase.host2.app[1].io packetSent:vector(packetBytes):sumweights 0
scalar FramePreemptionShowcase.host2.app[1].io packetSent:vector(packetBytes):mean -nan
scalar FramePreemptionShowcase.host2.app[1].io packetSent:vector(packetBytes):stddev nan
scalar FramePreemptionShowcase.host2.app[1].io packetSent:vector(packetBytes):min inf
scalar FramePreemptionShowcase.host2.app[1].io packetSent:vector(packetBytes):max -inf
scalar FramePreemptionShowcase.host2.app[1].io packetSent:vector(packetBytes):starttime nan
scalar FramePreemptionShowcase.host2.app[1].io packetSent:vector(packetBytes):endtime nan
scalar FramePreemptionShowcase.host2.app[1].io packetReceived:vector(packetBytes):count 993
scalar FramePreemptionShowcase.host2.app[1].io packetReceived:vector(packetBytes):sum 1191600
scalar FramePreemptionShowcase.host2.app[1].io packetReceived:vector(packetBytes):sumweights 993
scalar FramePreemptionShowcase.host2.app[1].io packetReceived:vector(packetBytes):mean 1200
scalar FramePreemptionShowcase.host2.app[1].io packetReceived:vector(packetBytes):stddev 0
scalar FramePreemptionShowcase.host2.app[1].io packetReceived:vector(packetBytes):min 1200
scalar FramePreemptionShowcase.host2.app[1].io packetReceived:vector(packetBytes):max 1200
scalar FramePreemptionShowcase.host2.app[1].io packetReceived:vector(packetBytes):starttime 0.00010037
scalar FramePreemptionShowcase.host2.app[1].io packetReceived:vector(packetBytes):endtime 0.999528659107

