version 3
run DcTcpIncast-0-20250108-11:20:15-9965
attr configname DcTcpIncast
attr datetime 20250108-11:20:15
attr datetimef 20250108-112015
attr experiment DcTcpIncast
attr inifile omnetpp.ini
attr iterationvars ""
attr iterationvarsd ""
attr iterationvarsf ""
attr measurement ""
attr network DcTcpIncast
attr processid 9965
attr repetition 0
attr replication #0
attr resultdir results
attr runnumber 0
attr seedset 0
config **.param-recording false
config image-path /home/levy/workspace/inet/images
config output-scalar-file results/omnetpp.ini-DcTcpIncast-#0.sca
config output-vector-file results/omnetpp.ini-DcTcpIncast-#0.vec
config sim-time-limit 100s
config sim-time-limit 100s
config **.client*.app[0].tSend 62s
config network DcTcpIncast
config parallel-simulation false
config warnings true
config cmdenv-event-banners true
config **.e*.datarate 10Mbps
config **.e*.delay 12ms
config **.arp.typename GlobalArp
config **.tcp.delayedAcksEnabled false
config **.tcp.nagleEnabled false
config **.tcp.limitedTransmitEnabled false
config **.tcp.increasedIWEnabled false
config **.tcp.sackSupport false
config **.tcp.windowScalingSupport true
config **.tcp.timestampSupport false
config **.tcp.tcpAlgorithmClass "\"DcTcp\""
config **.tcp.advertisedWindow 350000
config **.tcp.mss 1460
config **.tcp.ecnWillingness true
config **.client21.numApps 20
config **.client21.app[*].typename TcpSinkApp
config **.client21.app[0].localPort 1000
config **.client21.app[1].localPort 1001
config **.client21.app[2].localPort 1002
config **.client21.app[3].localPort 1003
config **.client21.app[4].localPort 1004
config **.client21.app[5].localPort 1005
config **.client21.app[6].localPort 1006
config **.client21.app[7].localPort 1007
config **.client21.app[8].localPort 1008
config **.client21.app[9].localPort 1009
config **.client21.app[10].localPort 10010
config **.client21.app[11].localPort 10011
config **.client21.app[12].localPort 10012
config **.client21.app[13].localPort 10013
config **.client21.app[14].localPort 10014
config **.client21.app[15].localPort 10015
config **.client21.app[16].localPort 10016
config **.client21.app[17].localPort 10017
config **.client21.app[18].localPort 10018
config **.client21.app[19].localPort 10019
config **.client1*.numApps 1
config **.client1*.app[*].typename TcpSessionApp
config **.client1*.app[0].active true
config **.client1*.app[0].localPort -1
config **.client1*.app[0].connectAddress "\"client21\""
config **.client1*.app[0].tOpen 1s
config **.client1*.app[0].sendBytes 10MiB
config **.client1*.app[0].sendScript "\"\""
config **.client1*.app[0].tClose 0s
config **.client11.app[0].connectPort 1000
config **.client12.app[0].connectPort 1001
config **.client13.app[0].connectPort 1002
config **.client14.app[0].connectPort 1003
config **.client15.app[0].connectPort 1004
config **.client16.app[0].connectPort 1005
config **.client17.app[0].connectPort 1006
config **.client18.app[0].connectPort 1007
config **.client19.app[0].connectPort 1008
config **.client110.app[0].connectPort 1009
config **.client111.app[0].connectPort 10010
config **.client112.app[0].connectPort 10011
config **.client113.app[0].connectPort 10012
config **.client114.app[0].connectPort 10013
config **.client115.app[0].connectPort 10014
config **.client116.app[0].connectPort 10015
config **.client117.app[0].connectPort 10016
config **.client118.app[0].connectPort 10017
config **.client119.app[0].connectPort 10018
config **.client120.app[0].connectPort 10019
config **.routerCore.eth[*].queue.typename RedDropperQueue
config **.routerCore.eth[*].queue.red.useEcn true
config **.routerCore.eth[*].queue.red.wq 1.0
config **.routerCore.eth[*].queue.red.minth 0
config **.routerCore.eth[*].queue.red.maxth 6
config **.routerCore.eth[*].queue.red.maxp 1.0
config **.routerCore.eth[*].queue.red.pkrate 833.3333
config **.routerCore.eth[*].queue.red.packetCapacity 500

scalar DcTcpIncast.routerCore.ethernet pauseSent:count 0
scalar DcTcpIncast.routerCore.ethernet pauseSent:sum 0
scalar DcTcpIncast.routerCore.ethernet decapPk:count 78791
scalar DcTcpIncast.routerCore.ethernet decapPk:sum(packetBytes) 47776096
scalar DcTcpIncast.routerCore.ethernet encapPk:count 78791
scalar DcTcpIncast.routerCore.ethernet encapPk:sum(packetBytes) 47539545
scalar DcTcpIncast.routerCore.lo[0].lo rcvdPkFromHl:count 0
scalar DcTcpIncast.routerCore.lo[0].lo rcvdPkFromHl:sum(packetBytes) 0
scalar DcTcpIncast.routerCore.lo[0].lo passedUpPk:count 0
scalar DcTcpIncast.routerCore.lo[0].lo passedUpPk:sum(packetBytes) 0
scalar DcTcpIncast.routerCore.lo[0] packetDropInterfaceDown:count 0
scalar DcTcpIncast.routerCore.lo[0] packetDropInterfaceDown:sum(packetBytes) 0
scalar DcTcpIncast.routerCore.lo[0] packetDropNoCarrier:count 0
scalar DcTcpIncast.routerCore.lo[0] packetDropNoCarrier:sum(packetBytes) 0
scalar DcTcpIncast.routerCore.eth[0].queue.red outgoingPackets:count 2017
scalar DcTcpIncast.routerCore.eth[0].queue.red outgoingPacketLengths:sum 935952
scalar DcTcpIncast.routerCore.eth[0].queue.red flowOutgoingPacketLengths:sum 0
scalar DcTcpIncast.routerCore.eth[0].queue.red incomingPackets:count 2017
scalar DcTcpIncast.routerCore.eth[0].queue.red incomingPacketLengths:sum 935952
scalar DcTcpIncast.routerCore.eth[0].queue.red flowIncomingPacketLengths:sum 0
scalar DcTcpIncast.routerCore.eth[0].queue.red droppedPackets:count 0
scalar DcTcpIncast.routerCore.eth[0].queue.red droppedPacketLengths:sum 0
scalar DcTcpIncast.routerCore.eth[0].queue.red flowDroppedPacketLengths:sum 0
scalar DcTcpIncast.routerCore.eth[0].queue.red packetDropCongestion:count 0
scalar DcTcpIncast.routerCore.eth[0].queue.red packetDropCongestion:sum(packetBytes) 0
scalar DcTcpIncast.routerCore.eth[0].queue.fifo queueLength:last 0
scalar DcTcpIncast.routerCore.eth[0].queue.fifo queueLength:max 0
scalar DcTcpIncast.routerCore.eth[0].queue.fifo queueLength:timeavg 0
scalar DcTcpIncast.routerCore.eth[0].queue.fifo queueBitLength:last 0
scalar DcTcpIncast.routerCore.eth[0].queue.fifo queueBitLength:max 0
scalar DcTcpIncast.routerCore.eth[0].queue.fifo queueBitLength:timeavg 0
scalar DcTcpIncast.routerCore.eth[0].queue.fifo outgoingPackets:count 2017
scalar DcTcpIncast.routerCore.eth[0].queue.fifo outgoingPacketLengths:sum 935952
scalar DcTcpIncast.routerCore.eth[0].queue.fifo incomingPackets:count 2017
scalar DcTcpIncast.routerCore.eth[0].queue.fifo incomingPacketLengths:sum 935952
scalar DcTcpIncast.routerCore.eth[0].queue.fifo droppedPacketsQueueOverflow:count 0
scalar DcTcpIncast.routerCore.eth[0].queue.fifo droppedPacketLengthsQueueOverflow:sum 0
scalar DcTcpIncast.routerCore.eth[0].queue queueLength:last -2017
scalar DcTcpIncast.routerCore.eth[0].queue queueLength:max 0
scalar DcTcpIncast.routerCore.eth[0].queue queueLength:timeavg -398.006074736
scalar DcTcpIncast.routerCore.eth[0].queue queueBitLength:last -935952
scalar DcTcpIncast.routerCore.eth[0].queue queueBitLength:max 0
scalar DcTcpIncast.routerCore.eth[0].queue queueBitLength:timeavg -184738.15552384
scalar DcTcpIncast.routerCore.eth[0].queue outgoingPackets:count 2017
scalar DcTcpIncast.routerCore.eth[0].queue outgoingPacketLengths:sum 935952
scalar DcTcpIncast.routerCore.eth[0].queue incomingPackets:count 0
scalar DcTcpIncast.routerCore.eth[0].queue incomingPacketLengths:sum 0
scalar DcTcpIncast.routerCore.eth[0].queue droppedPacketsQueueOverflow:count 0
scalar DcTcpIncast.routerCore.eth[0].queue droppedPacketLengthsQueueOverflow:sum 0
scalar DcTcpIncast.routerCore.eth[0].mac "simulated time" 100
scalar DcTcpIncast.routerCore.eth[0].mac full-duplex 1
scalar DcTcpIncast.routerCore.eth[0].mac "frames/sec sent" 20.17
scalar DcTcpIncast.routerCore.eth[0].mac "frames/sec rcvd" 20.21
scalar DcTcpIncast.routerCore.eth[0].mac "bits/sec sent" 10327.2
scalar DcTcpIncast.routerCore.eth[0].mac "bits/sec rcvd" 192417.76
scalar DcTcpIncast.routerCore.eth[0].mac "rx channel idle (%)" 98.062888
scalar DcTcpIncast.routerCore.eth[0].mac "rx channel utilization (%)" 1.937112
scalar DcTcpIncast.routerCore.eth[0].mac rxPausePkUnits:count 0
scalar DcTcpIncast.routerCore.eth[0].mac rxPausePkUnits:sum 0
scalar DcTcpIncast.routerCore.eth[0].mac txPausePkUnits:count 0
scalar DcTcpIncast.routerCore.eth[0].mac txPausePkUnits:sum 0
scalar DcTcpIncast.routerCore.eth[0].mac rxPkOk:count 2021
scalar DcTcpIncast.routerCore.eth[0].mac rxPkOk:sum(packetBytes) 2405222
scalar DcTcpIncast.routerCore.eth[0].mac txPk:count 2017
scalar DcTcpIncast.routerCore.eth[0].mac txPk:sum(packetBytes) 129090
scalar DcTcpIncast.routerCore.eth[0].mac packetReceivedFromUpper:count 2017
scalar DcTcpIncast.routerCore.eth[0].mac packetReceivedFromUpper:sum(packetBytes) 116994
scalar DcTcpIncast.routerCore.eth[0].mac passedUpPk:count 2021
scalar DcTcpIncast.routerCore.eth[0].mac passedUpPk:sum(packetBytes) 2405222
scalar DcTcpIncast.routerCore.eth[0].mac packetDropIncorrectlyReceived:count 0
scalar DcTcpIncast.routerCore.eth[0].mac packetDropIncorrectlyReceived:sum(packetBytes) 0
scalar DcTcpIncast.routerCore.eth[0].mac packetDropInterfaceDown:count 0
scalar DcTcpIncast.routerCore.eth[0].mac packetDropInterfaceDown:sum(packetBytes) 0
scalar DcTcpIncast.routerCore.eth[0].mac packetDropNotAddressedToUs:count 0
scalar DcTcpIncast.routerCore.eth[0].mac packetDropNotAddressedToUs:sum(packetBytes) 0
scalar DcTcpIncast.routerCore.eth[0] packetDropInterfaceDown:count 0
scalar DcTcpIncast.routerCore.eth[0] packetDropInterfaceDown:sum(packetBytes) 0
scalar DcTcpIncast.routerCore.eth[0] packetDropNoCarrier:count 0
scalar DcTcpIncast.routerCore.eth[0] packetDropNoCarrier:sum(packetBytes) 0
scalar DcTcpIncast.routerCore.eth[1].queue.red outgoingPackets:count 1458
scalar DcTcpIncast.routerCore.eth[1].queue.red outgoingPacketLengths:sum 676576
scalar DcTcpIncast.routerCore.eth[1].queue.red flowOutgoingPacketLengths:sum 0
scalar DcTcpIncast.routerCore.eth[1].queue.red incomingPackets:count 1458
scalar DcTcpIncast.routerCore.eth[1].queue.red incomingPacketLengths:sum 676576
scalar DcTcpIncast.routerCore.eth[1].queue.red flowIncomingPacketLengths:sum 0
scalar DcTcpIncast.routerCore.eth[1].queue.red droppedPackets:count 0
scalar DcTcpIncast.routerCore.eth[1].queue.red droppedPacketLengths:sum 0
scalar DcTcpIncast.routerCore.eth[1].queue.red flowDroppedPacketLengths:sum 0
scalar DcTcpIncast.routerCore.eth[1].queue.red packetDropCongestion:count 0
scalar DcTcpIncast.routerCore.eth[1].queue.red packetDropCongestion:sum(packetBytes) 0
scalar DcTcpIncast.routerCore.eth[1].queue.fifo queueLength:last 0
scalar DcTcpIncast.routerCore.eth[1].queue.fifo queueLength:max 0
scalar DcTcpIncast.routerCore.eth[1].queue.fifo queueLength:timeavg 0
scalar DcTcpIncast.routerCore.eth[1].queue.fifo queueBitLength:last 0
scalar DcTcpIncast.routerCore.eth[1].queue.fifo queueBitLength:max 0
scalar DcTcpIncast.routerCore.eth[1].queue.fifo queueBitLength:timeavg 0
scalar DcTcpIncast.routerCore.eth[1].queue.fifo outgoingPackets:count 1458
scalar DcTcpIncast.routerCore.eth[1].queue.fifo outgoingPacketLengths:sum 676576
scalar DcTcpIncast.routerCore.eth[1].queue.fifo incomingPackets:count 1458
scalar DcTcpIncast.routerCore.eth[1].queue.fifo incomingPacketLengths:sum 676576
scalar DcTcpIncast.routerCore.eth[1].queue.fifo droppedPacketsQueueOverflow:count 0
scalar DcTcpIncast.routerCore.eth[1].queue.fifo droppedPacketLengthsQueueOverflow:sum 0
scalar DcTcpIncast.routerCore.eth[1].queue queueLength:last -1458
scalar DcTcpIncast.routerCore.eth[1].queue queueLength:max 0
scalar DcTcpIncast.routerCore.eth[1].queue queueLength:timeavg -305.677256744
scalar DcTcpIncast.routerCore.eth[1].queue queueBitLength:last -676576
scalar DcTcpIncast.routerCore.eth[1].queue queueBitLength:max 0
scalar DcTcpIncast.routerCore.eth[1].queue queueBitLength:timeavg -141897.58393152
scalar DcTcpIncast.routerCore.eth[1].queue outgoingPackets:count 1458
scalar DcTcpIncast.routerCore.eth[1].queue outgoingPacketLengths:sum 676576
scalar DcTcpIncast.routerCore.eth[1].queue incomingPackets:count 0
scalar DcTcpIncast.routerCore.eth[1].queue incomingPacketLengths:sum 0
scalar DcTcpIncast.routerCore.eth[1].queue droppedPacketsQueueOverflow:count 0
scalar DcTcpIncast.routerCore.eth[1].queue droppedPacketLengthsQueueOverflow:sum 0
scalar DcTcpIncast.routerCore.eth[1].mac "simulated time" 100
scalar DcTcpIncast.routerCore.eth[1].mac full-duplex 1
scalar DcTcpIncast.routerCore.eth[1].mac "frames/sec sent" 14.58
scalar DcTcpIncast.routerCore.eth[1].mac "frames/sec rcvd" 14.61
scalar DcTcpIncast.routerCore.eth[1].mac "bits/sec sent" 7465.12
scalar DcTcpIncast.routerCore.eth[1].mac "bits/sec rcvd" 130048.16
scalar DcTcpIncast.routerCore.eth[1].mac "rx channel idle (%)" 98.690168
scalar DcTcpIncast.routerCore.eth[1].mac "rx channel utilization (%)" 1.309832
scalar DcTcpIncast.routerCore.eth[1].mac rxPausePkUnits:count 0
scalar DcTcpIncast.routerCore.eth[1].mac rxPausePkUnits:sum 0
scalar DcTcpIncast.routerCore.eth[1].mac txPausePkUnits:count 0
scalar DcTcpIncast.routerCore.eth[1].mac txPausePkUnits:sum 0
scalar DcTcpIncast.routerCore.eth[1].mac rxPkOk:count 1461
scalar DcTcpIncast.routerCore.eth[1].mac rxPkOk:sum(packetBytes) 1625602
scalar DcTcpIncast.routerCore.eth[1].mac txPk:count 1458
scalar DcTcpIncast.routerCore.eth[1].mac txPk:sum(packetBytes) 93314
scalar DcTcpIncast.routerCore.eth[1].mac packetReceivedFromUpper:count 1458
scalar DcTcpIncast.routerCore.eth[1].mac packetReceivedFromUpper:sum(packetBytes) 84572
scalar DcTcpIncast.routerCore.eth[1].mac passedUpPk:count 1461
scalar DcTcpIncast.routerCore.eth[1].mac passedUpPk:sum(packetBytes) 1625602
scalar DcTcpIncast.routerCore.eth[1].mac packetDropIncorrectlyReceived:count 0
scalar DcTcpIncast.routerCore.eth[1].mac packetDropIncorrectlyReceived:sum(packetBytes) 0
scalar DcTcpIncast.routerCore.eth[1].mac packetDropInterfaceDown:count 0
scalar DcTcpIncast.routerCore.eth[1].mac packetDropInterfaceDown:sum(packetBytes) 0
scalar DcTcpIncast.routerCore.eth[1].mac packetDropNotAddressedToUs:count 0
scalar DcTcpIncast.routerCore.eth[1].mac packetDropNotAddressedToUs:sum(packetBytes) 0
scalar DcTcpIncast.routerCore.eth[1] packetDropInterfaceDown:count 0
scalar DcTcpIncast.routerCore.eth[1] packetDropInterfaceDown:sum(packetBytes) 0
scalar DcTcpIncast.routerCore.eth[1] packetDropNoCarrier:count 0
scalar DcTcpIncast.routerCore.eth[1] packetDropNoCarrier:sum(packetBytes) 0
scalar DcTcpIncast.routerCore.eth[2].queue.red outgoingPackets:count 2003
scalar DcTcpIncast.routerCore.eth[2].queue.red outgoingPacketLengths:sum 929456
scalar DcTcpIncast.routerCore.eth[2].queue.red flowOutgoingPacketLengths:sum 0
scalar DcTcpIncast.routerCore.eth[2].queue.red incomingPackets:count 2003
scalar DcTcpIncast.routerCore.eth[2].queue.red incomingPacketLengths:sum 929456
scalar DcTcpIncast.routerCore.eth[2].queue.red flowIncomingPacketLengths:sum 0
scalar DcTcpIncast.routerCore.eth[2].queue.red droppedPackets:count 0
scalar DcTcpIncast.routerCore.eth[2].queue.red droppedPacketLengths:sum 0
scalar DcTcpIncast.routerCore.eth[2].queue.red flowDroppedPacketLengths:sum 0
scalar DcTcpIncast.routerCore.eth[2].queue.red packetDropCongestion:count 0
scalar DcTcpIncast.routerCore.eth[2].queue.red packetDropCongestion:sum(packetBytes) 0
scalar DcTcpIncast.routerCore.eth[2].queue.fifo queueLength:last 0
scalar DcTcpIncast.routerCore.eth[2].queue.fifo queueLength:max 0
scalar DcTcpIncast.routerCore.eth[2].queue.fifo queueLength:timeavg 0
scalar DcTcpIncast.routerCore.eth[2].queue.fifo queueBitLength:last 0
scalar DcTcpIncast.routerCore.eth[2].queue.fifo queueBitLength:max 0
scalar DcTcpIncast.routerCore.eth[2].queue.fifo queueBitLength:timeavg 0
scalar DcTcpIncast.routerCore.eth[2].queue.fifo outgoingPackets:count 2003
scalar DcTcpIncast.routerCore.eth[2].queue.fifo outgoingPacketLengths:sum 929456
scalar DcTcpIncast.routerCore.eth[2].queue.fifo incomingPackets:count 2003
scalar DcTcpIncast.routerCore.eth[2].queue.fifo incomingPacketLengths:sum 929456
scalar DcTcpIncast.routerCore.eth[2].queue.fifo droppedPacketsQueueOverflow:count 0
scalar DcTcpIncast.routerCore.eth[2].queue.fifo droppedPacketLengthsQueueOverflow:sum 0
scalar DcTcpIncast.routerCore.eth[2].queue queueLength:last -2003
scalar DcTcpIncast.routerCore.eth[2].queue queueLength:max 0
scalar DcTcpIncast.routerCore.eth[2].queue queueLength:timeavg -392.741103792
scalar DcTcpIncast.routerCore.eth[2].queue queueBitLength:last -929456
scalar DcTcpIncast.routerCore.eth[2].queue queueBitLength:max 0
scalar DcTcpIncast.routerCore.eth[2].queue queueBitLength:timeavg -182295.20891776
scalar DcTcpIncast.routerCore.eth[2].queue outgoingPackets:count 2003
scalar DcTcpIncast.routerCore.eth[2].queue outgoingPacketLengths:sum 929456
scalar DcTcpIncast.routerCore.eth[2].queue incomingPackets:count 0
scalar DcTcpIncast.routerCore.eth[2].queue incomingPacketLengths:sum 0
scalar DcTcpIncast.routerCore.eth[2].queue droppedPacketsQueueOverflow:count 0
scalar DcTcpIncast.routerCore.eth[2].queue droppedPacketLengthsQueueOverflow:sum 0
scalar DcTcpIncast.routerCore.eth[2].mac "simulated time" 100
scalar DcTcpIncast.routerCore.eth[2].mac full-duplex 1
scalar DcTcpIncast.routerCore.eth[2].mac "frames/sec sent" 20.03
scalar DcTcpIncast.routerCore.eth[2].mac "frames/sec rcvd" 20.07
scalar DcTcpIncast.routerCore.eth[2].mac "bits/sec sent" 10255.52
scalar DcTcpIncast.routerCore.eth[2].mac "bits/sec rcvd" 190922.16
scalar DcTcpIncast.routerCore.eth[2].mac "rx channel idle (%)" 98.0779336
scalar DcTcpIncast.routerCore.eth[2].mac "rx channel utilization (%)" 1.9220664
scalar DcTcpIncast.routerCore.eth[2].mac rxPausePkUnits:count 0
scalar DcTcpIncast.routerCore.eth[2].mac rxPausePkUnits:sum 0
scalar DcTcpIncast.routerCore.eth[2].mac txPausePkUnits:count 0
scalar DcTcpIncast.routerCore.eth[2].mac txPausePkUnits:sum 0
scalar DcTcpIncast.routerCore.eth[2].mac rxPkOk:count 2007
scalar DcTcpIncast.routerCore.eth[2].mac rxPkOk:sum(packetBytes) 2386527
scalar DcTcpIncast.routerCore.eth[2].mac txPk:count 2003
scalar DcTcpIncast.routerCore.eth[2].mac txPk:sum(packetBytes) 128194
scalar DcTcpIncast.routerCore.eth[2].mac packetReceivedFromUpper:count 2003
scalar DcTcpIncast.routerCore.eth[2].mac packetReceivedFromUpper:sum(packetBytes) 116182
scalar DcTcpIncast.routerCore.eth[2].mac passedUpPk:count 2007
scalar DcTcpIncast.routerCore.eth[2].mac passedUpPk:sum(packetBytes) 2386527
scalar DcTcpIncast.routerCore.eth[2].mac packetDropIncorrectlyReceived:count 0
scalar DcTcpIncast.routerCore.eth[2].mac packetDropIncorrectlyReceived:sum(packetBytes) 0
scalar DcTcpIncast.routerCore.eth[2].mac packetDropInterfaceDown:count 0
scalar DcTcpIncast.routerCore.eth[2].mac packetDropInterfaceDown:sum(packetBytes) 0
scalar DcTcpIncast.routerCore.eth[2].mac packetDropNotAddressedToUs:count 0
scalar DcTcpIncast.routerCore.eth[2].mac packetDropNotAddressedToUs:sum(packetBytes) 0
scalar DcTcpIncast.routerCore.eth[2] packetDropInterfaceDown:count 0
scalar DcTcpIncast.routerCore.eth[2] packetDropInterfaceDown:sum(packetBytes) 0
scalar DcTcpIncast.routerCore.eth[2] packetDropNoCarrier:count 0
scalar DcTcpIncast.routerCore.eth[2] packetDropNoCarrier:sum(packetBytes) 0
scalar DcTcpIncast.routerCore.eth[3].queue.red outgoingPackets:count 1991
scalar DcTcpIncast.routerCore.eth[3].queue.red outgoingPacketLengths:sum 923888
scalar DcTcpIncast.routerCore.eth[3].queue.red flowOutgoingPacketLengths:sum 0
scalar DcTcpIncast.routerCore.eth[3].queue.red incomingPackets:count 1991
scalar DcTcpIncast.routerCore.eth[3].queue.red incomingPacketLengths:sum 923888
scalar DcTcpIncast.routerCore.eth[3].queue.red flowIncomingPacketLengths:sum 0
scalar DcTcpIncast.routerCore.eth[3].queue.red droppedPackets:count 0
scalar DcTcpIncast.routerCore.eth[3].queue.red droppedPacketLengths:sum 0
scalar DcTcpIncast.routerCore.eth[3].queue.red flowDroppedPacketLengths:sum 0
scalar DcTcpIncast.routerCore.eth[3].queue.red packetDropCongestion:count 0
scalar DcTcpIncast.routerCore.eth[3].queue.red packetDropCongestion:sum(packetBytes) 0
scalar DcTcpIncast.routerCore.eth[3].queue.fifo queueLength:last 0
scalar DcTcpIncast.routerCore.eth[3].queue.fifo queueLength:max 0
scalar DcTcpIncast.routerCore.eth[3].queue.fifo queueLength:timeavg 0
scalar DcTcpIncast.routerCore.eth[3].queue.fifo queueBitLength:last 0
scalar DcTcpIncast.routerCore.eth[3].queue.fifo queueBitLength:max 0
scalar DcTcpIncast.routerCore.eth[3].queue.fifo queueBitLength:timeavg 0
scalar DcTcpIncast.routerCore.eth[3].queue.fifo outgoingPackets:count 1991
scalar DcTcpIncast.routerCore.eth[3].queue.fifo outgoingPacketLengths:sum 923888
scalar DcTcpIncast.routerCore.eth[3].queue.fifo incomingPackets:count 1991
scalar DcTcpIncast.routerCore.eth[3].queue.fifo incomingPacketLengths:sum 923888
scalar DcTcpIncast.routerCore.eth[3].queue.fifo droppedPacketsQueueOverflow:count 0
scalar DcTcpIncast.routerCore.eth[3].queue.fifo droppedPacketLengthsQueueOverflow:sum 0
scalar DcTcpIncast.routerCore.eth[3].queue queueLength:last -1991
scalar DcTcpIncast.routerCore.eth[3].queue queueLength:max 0
scalar DcTcpIncast.routerCore.eth[3].queue queueLength:timeavg -388.097790992
scalar DcTcpIncast.routerCore.eth[3].queue queueBitLength:last -923888
scalar DcTcpIncast.routerCore.eth[3].queue queueBitLength:max 0
scalar DcTcpIncast.routerCore.eth[3].queue queueBitLength:timeavg -180138.79186662
scalar DcTcpIncast.routerCore.eth[3].queue outgoingPackets:count 1991
scalar DcTcpIncast.routerCore.eth[3].queue outgoingPacketLengths:sum 923888
scalar DcTcpIncast.routerCore.eth[3].queue incomingPackets:count 0
scalar DcTcpIncast.routerCore.eth[3].queue incomingPacketLengths:sum 0
scalar DcTcpIncast.routerCore.eth[3].queue droppedPacketsQueueOverflow:count 0
scalar DcTcpIncast.routerCore.eth[3].queue droppedPacketLengthsQueueOverflow:sum 0
scalar DcTcpIncast.routerCore.eth[3].mac "simulated time" 100
scalar DcTcpIncast.routerCore.eth[3].mac full-duplex 1
scalar DcTcpIncast.routerCore.eth[3].mac "frames/sec sent" 19.91
scalar DcTcpIncast.routerCore.eth[3].mac "frames/sec rcvd" 19.96
scalar DcTcpIncast.routerCore.eth[3].mac "bits/sec sent" 10194.08
scalar DcTcpIncast.routerCore.eth[3].mac "bits/sec rcvd" 190185.28
scalar DcTcpIncast.routerCore.eth[3].mac "rx channel idle (%)" 98.0853728
scalar DcTcpIncast.routerCore.eth[3].mac "rx channel utilization (%)" 1.9146272
scalar DcTcpIncast.routerCore.eth[3].mac rxPausePkUnits:count 0
scalar DcTcpIncast.routerCore.eth[3].mac rxPausePkUnits:sum 0
scalar DcTcpIncast.routerCore.eth[3].mac txPausePkUnits:count 0
scalar DcTcpIncast.routerCore.eth[3].mac txPausePkUnits:sum 0
scalar DcTcpIncast.routerCore.eth[3].mac rxPkOk:count 1996
scalar DcTcpIncast.routerCore.eth[3].mac rxPkOk:sum(packetBytes) 2377316
scalar DcTcpIncast.routerCore.eth[3].mac txPk:count 1991
scalar DcTcpIncast.routerCore.eth[3].mac txPk:sum(packetBytes) 127426
scalar DcTcpIncast.routerCore.eth[3].mac packetReceivedFromUpper:count 1991
scalar DcTcpIncast.routerCore.eth[3].mac packetReceivedFromUpper:sum(packetBytes) 115486
scalar DcTcpIncast.routerCore.eth[3].mac passedUpPk:count 1996
scalar DcTcpIncast.routerCore.eth[3].mac passedUpPk:sum(packetBytes) 2377316
scalar DcTcpIncast.routerCore.eth[3].mac packetDropIncorrectlyReceived:count 0
scalar DcTcpIncast.routerCore.eth[3].mac packetDropIncorrectlyReceived:sum(packetBytes) 0
scalar DcTcpIncast.routerCore.eth[3].mac packetDropInterfaceDown:count 0
scalar DcTcpIncast.routerCore.eth[3].mac packetDropInterfaceDown:sum(packetBytes) 0
scalar DcTcpIncast.routerCore.eth[3].mac packetDropNotAddressedToUs:count 0
scalar DcTcpIncast.routerCore.eth[3].mac packetDropNotAddressedToUs:sum(packetBytes) 0
scalar DcTcpIncast.routerCore.eth[3] packetDropInterfaceDown:count 0
scalar DcTcpIncast.routerCore.eth[3] packetDropInterfaceDown:sum(packetBytes) 0
scalar DcTcpIncast.routerCore.eth[3] packetDropNoCarrier:count 0
scalar DcTcpIncast.routerCore.eth[3] packetDropNoCarrier:sum(packetBytes) 0
scalar DcTcpIncast.routerCore.eth[4].queue.red outgoingPackets:count 1991
scalar DcTcpIncast.routerCore.eth[4].queue.red outgoingPacketLengths:sum 923888
scalar DcTcpIncast.routerCore.eth[4].queue.red flowOutgoingPacketLengths:sum 0
scalar DcTcpIncast.routerCore.eth[4].queue.red incomingPackets:count 1991
scalar DcTcpIncast.routerCore.eth[4].queue.red incomingPacketLengths:sum 923888
scalar DcTcpIncast.routerCore.eth[4].queue.red flowIncomingPacketLengths:sum 0
scalar DcTcpIncast.routerCore.eth[4].queue.red droppedPackets:count 0
scalar DcTcpIncast.routerCore.eth[4].queue.red droppedPacketLengths:sum 0
scalar DcTcpIncast.routerCore.eth[4].queue.red flowDroppedPacketLengths:sum 0
scalar DcTcpIncast.routerCore.eth[4].queue.red packetDropCongestion:count 0
scalar DcTcpIncast.routerCore.eth[4].queue.red packetDropCongestion:sum(packetBytes) 0
scalar DcTcpIncast.routerCore.eth[4].queue.fifo queueLength:last 0
scalar DcTcpIncast.routerCore.eth[4].queue.fifo queueLength:max 0
scalar DcTcpIncast.routerCore.eth[4].queue.fifo queueLength:timeavg 0
scalar DcTcpIncast.routerCore.eth[4].queue.fifo queueBitLength:last 0
scalar DcTcpIncast.routerCore.eth[4].queue.fifo queueBitLength:max 0
scalar DcTcpIncast.routerCore.eth[4].queue.fifo queueBitLength:timeavg 0
scalar DcTcpIncast.routerCore.eth[4].queue.fifo outgoingPackets:count 1991
scalar DcTcpIncast.routerCore.eth[4].queue.fifo outgoingPacketLengths:sum 923888
scalar DcTcpIncast.routerCore.eth[4].queue.fifo incomingPackets:count 1991
scalar DcTcpIncast.routerCore.eth[4].queue.fifo incomingPacketLengths:sum 923888
scalar DcTcpIncast.routerCore.eth[4].queue.fifo droppedPacketsQueueOverflow:count 0
scalar DcTcpIncast.routerCore.eth[4].queue.fifo droppedPacketLengthsQueueOverflow:sum 0
scalar DcTcpIncast.routerCore.eth[4].queue queueLength:last -1991
scalar DcTcpIncast.routerCore.eth[4].queue queueLength:max 0
scalar DcTcpIncast.routerCore.eth[4].queue queueLength:timeavg -388.20285436
scalar DcTcpIncast.routerCore.eth[4].queue queueBitLength:last -923888
scalar DcTcpIncast.routerCore.eth[4].queue queueBitLength:max 0
scalar DcTcpIncast.routerCore.eth[4].queue queueBitLength:timeavg -180189.46113728
scalar DcTcpIncast.routerCore.eth[4].queue outgoingPackets:count 1991
scalar DcTcpIncast.routerCore.eth[4].queue outgoingPacketLengths:sum 923888
scalar DcTcpIncast.routerCore.eth[4].queue incomingPackets:count 0
scalar DcTcpIncast.routerCore.eth[4].queue incomingPacketLengths:sum 0
scalar DcTcpIncast.routerCore.eth[4].queue droppedPacketsQueueOverflow:count 0
scalar DcTcpIncast.routerCore.eth[4].queue droppedPacketLengthsQueueOverflow:sum 0
scalar DcTcpIncast.routerCore.eth[4].mac "simulated time" 100
scalar DcTcpIncast.routerCore.eth[4].mac full-duplex 1
scalar DcTcpIncast.routerCore.eth[4].mac "frames/sec sent" 19.91
scalar DcTcpIncast.routerCore.eth[4].mac "frames/sec rcvd" 19.95
scalar DcTcpIncast.routerCore.eth[4].mac "bits/sec sent" 10194.08
scalar DcTcpIncast.routerCore.eth[4].mac "bits/sec rcvd" 190180
scalar DcTcpIncast.routerCore.eth[4].mac "rx channel idle (%)" 98.085432
scalar DcTcpIncast.routerCore.eth[4].mac "rx channel utilization (%)" 1.914568
scalar DcTcpIncast.routerCore.eth[4].mac rxPausePkUnits:count 0
scalar DcTcpIncast.routerCore.eth[4].mac rxPausePkUnits:sum 0
scalar DcTcpIncast.routerCore.eth[4].mac txPausePkUnits:count 0
scalar DcTcpIncast.routerCore.eth[4].mac txPausePkUnits:sum 0
scalar DcTcpIncast.routerCore.eth[4].mac rxPkOk:count 1995
scalar DcTcpIncast.routerCore.eth[4].mac rxPkOk:sum(packetBytes) 2377250
scalar DcTcpIncast.routerCore.eth[4].mac txPk:count 1991
scalar DcTcpIncast.routerCore.eth[4].mac txPk:sum(packetBytes) 127426
scalar DcTcpIncast.routerCore.eth[4].mac packetReceivedFromUpper:count 1991
scalar DcTcpIncast.routerCore.eth[4].mac packetReceivedFromUpper:sum(packetBytes) 115486
scalar DcTcpIncast.routerCore.eth[4].mac passedUpPk:count 1995
scalar DcTcpIncast.routerCore.eth[4].mac passedUpPk:sum(packetBytes) 2377250
scalar DcTcpIncast.routerCore.eth[4].mac packetDropIncorrectlyReceived:count 0
scalar DcTcpIncast.routerCore.eth[4].mac packetDropIncorrectlyReceived:sum(packetBytes) 0
scalar DcTcpIncast.routerCore.eth[4].mac packetDropInterfaceDown:count 0
scalar DcTcpIncast.routerCore.eth[4].mac packetDropInterfaceDown:sum(packetBytes) 0
scalar DcTcpIncast.routerCore.eth[4].mac packetDropNotAddressedToUs:count 0
scalar DcTcpIncast.routerCore.eth[4].mac packetDropNotAddressedToUs:sum(packetBytes) 0
scalar DcTcpIncast.routerCore.eth[4] packetDropInterfaceDown:count 0
scalar DcTcpIncast.routerCore.eth[4] packetDropInterfaceDown:sum(packetBytes) 0
scalar DcTcpIncast.routerCore.eth[4] packetDropNoCarrier:count 0
scalar DcTcpIncast.routerCore.eth[4] packetDropNoCarrier:sum(packetBytes) 0
scalar DcTcpIncast.routerCore.eth[5].queue.red outgoingPackets:count 1991
scalar DcTcpIncast.routerCore.eth[5].queue.red outgoingPacketLengths:sum 923888
scalar DcTcpIncast.routerCore.eth[5].queue.red flowOutgoingPacketLengths:sum 0
scalar DcTcpIncast.routerCore.eth[5].queue.red incomingPackets:count 1991
scalar DcTcpIncast.routerCore.eth[5].queue.red incomingPacketLengths:sum 923888
scalar DcTcpIncast.routerCore.eth[5].queue.red flowIncomingPacketLengths:sum 0
scalar DcTcpIncast.routerCore.eth[5].queue.red droppedPackets:count 0
scalar DcTcpIncast.routerCore.eth[5].queue.red droppedPacketLengths:sum 0
scalar DcTcpIncast.routerCore.eth[5].queue.red flowDroppedPacketLengths:sum 0
scalar DcTcpIncast.routerCore.eth[5].queue.red packetDropCongestion:count 0
scalar DcTcpIncast.routerCore.eth[5].queue.red packetDropCongestion:sum(packetBytes) 0
scalar DcTcpIncast.routerCore.eth[5].queue.fifo queueLength:last 0
scalar DcTcpIncast.routerCore.eth[5].queue.fifo queueLength:max 0
scalar DcTcpIncast.routerCore.eth[5].queue.fifo queueLength:timeavg 0
scalar DcTcpIncast.routerCore.eth[5].queue.fifo queueBitLength:last 0
scalar DcTcpIncast.routerCore.eth[5].queue.fifo queueBitLength:max 0
scalar DcTcpIncast.routerCore.eth[5].queue.fifo queueBitLength:timeavg 0
scalar DcTcpIncast.routerCore.eth[5].queue.fifo outgoingPackets:count 1991
scalar DcTcpIncast.routerCore.eth[5].queue.fifo outgoingPacketLengths:sum 923888
scalar DcTcpIncast.routerCore.eth[5].queue.fifo incomingPackets:count 1991
scalar DcTcpIncast.routerCore.eth[5].queue.fifo incomingPacketLengths:sum 923888
scalar DcTcpIncast.routerCore.eth[5].queue.fifo droppedPacketsQueueOverflow:count 0
scalar DcTcpIncast.routerCore.eth[5].queue.fifo droppedPacketLengthsQueueOverflow:sum 0
scalar DcTcpIncast.routerCore.eth[5].queue queueLength:last -1991
scalar DcTcpIncast.routerCore.eth[5].queue queueLength:max 0
scalar DcTcpIncast.routerCore.eth[5].queue queueLength:timeavg -388.038130568
scalar DcTcpIncast.routerCore.eth[5].queue queueBitLength:last -923888
scalar DcTcpIncast.routerCore.eth[5].queue queueBitLength:max 0
scalar DcTcpIncast.routerCore.eth[5].queue queueBitLength:timeavg -180111.10938586
scalar DcTcpIncast.routerCore.eth[5].queue outgoingPackets:count 1991
scalar DcTcpIncast.routerCore.eth[5].queue outgoingPacketLengths:sum 923888
scalar DcTcpIncast.routerCore.eth[5].queue incomingPackets:count 0
scalar DcTcpIncast.routerCore.eth[5].queue incomingPacketLengths:sum 0
scalar DcTcpIncast.routerCore.eth[5].queue droppedPacketsQueueOverflow:count 0
scalar DcTcpIncast.routerCore.eth[5].queue droppedPacketLengthsQueueOverflow:sum 0
scalar DcTcpIncast.routerCore.eth[5].mac "simulated time" 100
scalar DcTcpIncast.routerCore.eth[5].mac full-duplex 1
scalar DcTcpIncast.routerCore.eth[5].mac "frames/sec sent" 19.91
scalar DcTcpIncast.routerCore.eth[5].mac "frames/sec rcvd" 19.96
scalar DcTcpIncast.routerCore.eth[5].mac "bits/sec sent" 10194.08
scalar DcTcpIncast.routerCore.eth[5].mac "bits/sec rcvd" 190185.28
scalar DcTcpIncast.routerCore.eth[5].mac "rx channel idle (%)" 98.0853728
scalar DcTcpIncast.routerCore.eth[5].mac "rx channel utilization (%)" 1.9146272
scalar DcTcpIncast.routerCore.eth[5].mac rxPausePkUnits:count 0
scalar DcTcpIncast.routerCore.eth[5].mac rxPausePkUnits:sum 0
scalar DcTcpIncast.routerCore.eth[5].mac txPausePkUnits:count 0
scalar DcTcpIncast.routerCore.eth[5].mac txPausePkUnits:sum 0
scalar DcTcpIncast.routerCore.eth[5].mac rxPkOk:count 1996
scalar DcTcpIncast.routerCore.eth[5].mac rxPkOk:sum(packetBytes) 2377316
scalar DcTcpIncast.routerCore.eth[5].mac txPk:count 1991
scalar DcTcpIncast.routerCore.eth[5].mac txPk:sum(packetBytes) 127426
scalar DcTcpIncast.routerCore.eth[5].mac packetReceivedFromUpper:count 1991
scalar DcTcpIncast.routerCore.eth[5].mac packetReceivedFromUpper:sum(packetBytes) 115486
scalar DcTcpIncast.routerCore.eth[5].mac passedUpPk:count 1996
scalar DcTcpIncast.routerCore.eth[5].mac passedUpPk:sum(packetBytes) 2377316
scalar DcTcpIncast.routerCore.eth[5].mac packetDropIncorrectlyReceived:count 0
scalar DcTcpIncast.routerCore.eth[5].mac packetDropIncorrectlyReceived:sum(packetBytes) 0
scalar DcTcpIncast.routerCore.eth[5].mac packetDropInterfaceDown:count 0
scalar DcTcpIncast.routerCore.eth[5].mac packetDropInterfaceDown:sum(packetBytes) 0
scalar DcTcpIncast.routerCore.eth[5].mac packetDropNotAddressedToUs:count 0
scalar DcTcpIncast.routerCore.eth[5].mac packetDropNotAddressedToUs:sum(packetBytes) 0
scalar DcTcpIncast.routerCore.eth[5] packetDropInterfaceDown:count 0
scalar DcTcpIncast.routerCore.eth[5] packetDropInterfaceDown:sum(packetBytes) 0
scalar DcTcpIncast.routerCore.eth[5] packetDropNoCarrier:count 0
scalar DcTcpIncast.routerCore.eth[5] packetDropNoCarrier:sum(packetBytes) 0
scalar DcTcpIncast.routerCore.eth[6].queue.red outgoingPackets:count 1991
scalar DcTcpIncast.routerCore.eth[6].queue.red outgoingPacketLengths:sum 923888
scalar DcTcpIncast.routerCore.eth[6].queue.red flowOutgoingPacketLengths:sum 0
scalar DcTcpIncast.routerCore.eth[6].queue.red incomingPackets:count 1991
scalar DcTcpIncast.routerCore.eth[6].queue.red incomingPacketLengths:sum 923888
scalar DcTcpIncast.routerCore.eth[6].queue.red flowIncomingPacketLengths:sum 0
scalar DcTcpIncast.routerCore.eth[6].queue.red droppedPackets:count 0
scalar DcTcpIncast.routerCore.eth[6].queue.red droppedPacketLengths:sum 0
scalar DcTcpIncast.routerCore.eth[6].queue.red flowDroppedPacketLengths:sum 0
scalar DcTcpIncast.routerCore.eth[6].queue.red packetDropCongestion:count 0
scalar DcTcpIncast.routerCore.eth[6].queue.red packetDropCongestion:sum(packetBytes) 0
scalar DcTcpIncast.routerCore.eth[6].queue.fifo queueLength:last 0
scalar DcTcpIncast.routerCore.eth[6].queue.fifo queueLength:max 0
scalar DcTcpIncast.routerCore.eth[6].queue.fifo queueLength:timeavg 0
scalar DcTcpIncast.routerCore.eth[6].queue.fifo queueBitLength:last 0
scalar DcTcpIncast.routerCore.eth[6].queue.fifo queueBitLength:max 0
scalar DcTcpIncast.routerCore.eth[6].queue.fifo queueBitLength:timeavg 0
scalar DcTcpIncast.routerCore.eth[6].queue.fifo outgoingPackets:count 1991
scalar DcTcpIncast.routerCore.eth[6].queue.fifo outgoingPacketLengths:sum 923888
scalar DcTcpIncast.routerCore.eth[6].queue.fifo incomingPackets:count 1991
scalar DcTcpIncast.routerCore.eth[6].queue.fifo incomingPacketLengths:sum 923888
scalar DcTcpIncast.routerCore.eth[6].queue.fifo droppedPacketsQueueOverflow:count 0
scalar DcTcpIncast.routerCore.eth[6].queue.fifo droppedPacketLengthsQueueOverflow:sum 0
scalar DcTcpIncast.routerCore.eth[6].queue queueLength:last -1991
scalar DcTcpIncast.routerCore.eth[6].queue queueLength:max 0
scalar DcTcpIncast.routerCore.eth[6].queue queueLength:timeavg -387.978470144
scalar DcTcpIncast.routerCore.eth[6].queue queueBitLength:last -923888
scalar DcTcpIncast.routerCore.eth[6].queue queueBitLength:max 0
scalar DcTcpIncast.routerCore.eth[6].queue queueBitLength:timeavg -180083.42690509
scalar DcTcpIncast.routerCore.eth[6].queue outgoingPackets:count 1991
scalar DcTcpIncast.routerCore.eth[6].queue outgoingPacketLengths:sum 923888
scalar DcTcpIncast.routerCore.eth[6].queue incomingPackets:count 0
scalar DcTcpIncast.routerCore.eth[6].queue incomingPacketLengths:sum 0
scalar DcTcpIncast.routerCore.eth[6].queue droppedPacketsQueueOverflow:count 0
scalar DcTcpIncast.routerCore.eth[6].queue droppedPacketLengthsQueueOverflow:sum 0
scalar DcTcpIncast.routerCore.eth[6].mac "simulated time" 100
scalar DcTcpIncast.routerCore.eth[6].mac full-duplex 1
scalar DcTcpIncast.routerCore.eth[6].mac "frames/sec sent" 19.91
scalar DcTcpIncast.routerCore.eth[6].mac "frames/sec rcvd" 19.95
scalar DcTcpIncast.routerCore.eth[6].mac "bits/sec sent" 10194.08
scalar DcTcpIncast.routerCore.eth[6].mac "bits/sec rcvd" 190063.84
scalar DcTcpIncast.routerCore.eth[6].mac "rx channel idle (%)" 98.0865936
scalar DcTcpIncast.routerCore.eth[6].mac "rx channel utilization (%)" 1.9134064
scalar DcTcpIncast.routerCore.eth[6].mac rxPausePkUnits:count 0
scalar DcTcpIncast.routerCore.eth[6].mac rxPausePkUnits:sum 0
scalar DcTcpIncast.routerCore.eth[6].mac txPausePkUnits:count 0
scalar DcTcpIncast.routerCore.eth[6].mac txPausePkUnits:sum 0
scalar DcTcpIncast.routerCore.eth[6].mac rxPkOk:count 1995
scalar DcTcpIncast.routerCore.eth[6].mac rxPkOk:sum(packetBytes) 2375798
scalar DcTcpIncast.routerCore.eth[6].mac txPk:count 1991
scalar DcTcpIncast.routerCore.eth[6].mac txPk:sum(packetBytes) 127426
scalar DcTcpIncast.routerCore.eth[6].mac packetReceivedFromUpper:count 1991
scalar DcTcpIncast.routerCore.eth[6].mac packetReceivedFromUpper:sum(packetBytes) 115486
scalar DcTcpIncast.routerCore.eth[6].mac passedUpPk:count 1995
scalar DcTcpIncast.routerCore.eth[6].mac passedUpPk:sum(packetBytes) 2375798
scalar DcTcpIncast.routerCore.eth[6].mac packetDropIncorrectlyReceived:count 0
scalar DcTcpIncast.routerCore.eth[6].mac packetDropIncorrectlyReceived:sum(packetBytes) 0
scalar DcTcpIncast.routerCore.eth[6].mac packetDropInterfaceDown:count 0
scalar DcTcpIncast.routerCore.eth[6].mac packetDropInterfaceDown:sum(packetBytes) 0
scalar DcTcpIncast.routerCore.eth[6].mac packetDropNotAddressedToUs:count 0
scalar DcTcpIncast.routerCore.eth[6].mac packetDropNotAddressedToUs:sum(packetBytes) 0
scalar DcTcpIncast.routerCore.eth[6] packetDropInterfaceDown:count 0
scalar DcTcpIncast.routerCore.eth[6] packetDropInterfaceDown:sum(packetBytes) 0
scalar DcTcpIncast.routerCore.eth[6] packetDropNoCarrier:count 0
scalar DcTcpIncast.routerCore.eth[6] packetDropNoCarrier:sum(packetBytes) 0
scalar DcTcpIncast.routerCore.eth[7].queue.red outgoingPackets:count 2006
scalar DcTcpIncast.routerCore.eth[7].queue.red outgoingPacketLengths:sum 930848
scalar DcTcpIncast.routerCore.eth[7].queue.red flowOutgoingPacketLengths:sum 0
scalar DcTcpIncast.routerCore.eth[7].queue.red incomingPackets:count 2006
scalar DcTcpIncast.routerCore.eth[7].queue.red incomingPacketLengths:sum 930848
scalar DcTcpIncast.routerCore.eth[7].queue.red flowIncomingPacketLengths:sum 0
scalar DcTcpIncast.routerCore.eth[7].queue.red droppedPackets:count 0
scalar DcTcpIncast.routerCore.eth[7].queue.red droppedPacketLengths:sum 0
scalar DcTcpIncast.routerCore.eth[7].queue.red flowDroppedPacketLengths:sum 0
scalar DcTcpIncast.routerCore.eth[7].queue.red packetDropCongestion:count 0
scalar DcTcpIncast.routerCore.eth[7].queue.red packetDropCongestion:sum(packetBytes) 0
scalar DcTcpIncast.routerCore.eth[7].queue.fifo queueLength:last 0
scalar DcTcpIncast.routerCore.eth[7].queue.fifo queueLength:max 0
scalar DcTcpIncast.routerCore.eth[7].queue.fifo queueLength:timeavg 0
scalar DcTcpIncast.routerCore.eth[7].queue.fifo queueBitLength:last 0
scalar DcTcpIncast.routerCore.eth[7].queue.fifo queueBitLength:max 0
scalar DcTcpIncast.routerCore.eth[7].queue.fifo queueBitLength:timeavg 0
scalar DcTcpIncast.routerCore.eth[7].queue.fifo outgoingPackets:count 2006
scalar DcTcpIncast.routerCore.eth[7].queue.fifo outgoingPacketLengths:sum 930848
scalar DcTcpIncast.routerCore.eth[7].queue.fifo incomingPackets:count 2006
scalar DcTcpIncast.routerCore.eth[7].queue.fifo incomingPacketLengths:sum 930848
scalar DcTcpIncast.routerCore.eth[7].queue.fifo droppedPacketsQueueOverflow:count 0
scalar DcTcpIncast.routerCore.eth[7].queue.fifo droppedPacketLengthsQueueOverflow:sum 0
scalar DcTcpIncast.routerCore.eth[7].queue queueLength:last -2006
scalar DcTcpIncast.routerCore.eth[7].queue queueLength:max 0
scalar DcTcpIncast.routerCore.eth[7].queue queueLength:timeavg -392.569586736
scalar DcTcpIncast.routerCore.eth[7].queue queueBitLength:last -930848
scalar DcTcpIncast.routerCore.eth[7].queue queueBitLength:max 0
scalar DcTcpIncast.routerCore.eth[7].queue queueBitLength:timeavg -182213.70495974
scalar DcTcpIncast.routerCore.eth[7].queue outgoingPackets:count 2006
scalar DcTcpIncast.routerCore.eth[7].queue outgoingPacketLengths:sum 930848
scalar DcTcpIncast.routerCore.eth[7].queue incomingPackets:count 0
scalar DcTcpIncast.routerCore.eth[7].queue incomingPacketLengths:sum 0
scalar DcTcpIncast.routerCore.eth[7].queue droppedPacketsQueueOverflow:count 0
scalar DcTcpIncast.routerCore.eth[7].queue droppedPacketLengthsQueueOverflow:sum 0
scalar DcTcpIncast.routerCore.eth[7].mac "simulated time" 100
scalar DcTcpIncast.routerCore.eth[7].mac full-duplex 1
scalar DcTcpIncast.routerCore.eth[7].mac "frames/sec sent" 20.06
scalar DcTcpIncast.routerCore.eth[7].mac "frames/sec rcvd" 20.08
scalar DcTcpIncast.routerCore.eth[7].mac "bits/sec sent" 10270.88
scalar DcTcpIncast.routerCore.eth[7].mac "bits/sec rcvd" 189167.76
scalar DcTcpIncast.routerCore.eth[7].mac "rx channel idle (%)" 98.0954712
scalar DcTcpIncast.routerCore.eth[7].mac "rx channel utilization (%)" 1.9045288
scalar DcTcpIncast.routerCore.eth[7].mac rxPausePkUnits:count 0
scalar DcTcpIncast.routerCore.eth[7].mac rxPausePkUnits:sum 0
scalar DcTcpIncast.routerCore.eth[7].mac txPausePkUnits:count 0
scalar DcTcpIncast.routerCore.eth[7].mac txPausePkUnits:sum 0
scalar DcTcpIncast.routerCore.eth[7].mac rxPkOk:count 2008
scalar DcTcpIncast.routerCore.eth[7].mac rxPkOk:sum(packetBytes) 2364597
scalar DcTcpIncast.routerCore.eth[7].mac txPk:count 2006
scalar DcTcpIncast.routerCore.eth[7].mac txPk:sum(packetBytes) 128386
scalar DcTcpIncast.routerCore.eth[7].mac packetReceivedFromUpper:count 2006
scalar DcTcpIncast.routerCore.eth[7].mac packetReceivedFromUpper:sum(packetBytes) 116356
scalar DcTcpIncast.routerCore.eth[7].mac passedUpPk:count 2008
scalar DcTcpIncast.routerCore.eth[7].mac passedUpPk:sum(packetBytes) 2364597
scalar DcTcpIncast.routerCore.eth[7].mac packetDropIncorrectlyReceived:count 0
scalar DcTcpIncast.routerCore.eth[7].mac packetDropIncorrectlyReceived:sum(packetBytes) 0
scalar DcTcpIncast.routerCore.eth[7].mac packetDropInterfaceDown:count 0
scalar DcTcpIncast.routerCore.eth[7].mac packetDropInterfaceDown:sum(packetBytes) 0
scalar DcTcpIncast.routerCore.eth[7].mac packetDropNotAddressedToUs:count 0
scalar DcTcpIncast.routerCore.eth[7].mac packetDropNotAddressedToUs:sum(packetBytes) 0
scalar DcTcpIncast.routerCore.eth[7] packetDropInterfaceDown:count 0
scalar DcTcpIncast.routerCore.eth[7] packetDropInterfaceDown:sum(packetBytes) 0
scalar DcTcpIncast.routerCore.eth[7] packetDropNoCarrier:count 0
scalar DcTcpIncast.routerCore.eth[7] packetDropNoCarrier:sum(packetBytes) 0
scalar DcTcpIncast.routerCore.eth[8].queue.red outgoingPackets:count 1992
scalar DcTcpIncast.routerCore.eth[8].queue.red outgoingPacketLengths:sum 924352
scalar DcTcpIncast.routerCore.eth[8].queue.red flowOutgoingPacketLengths:sum 0
scalar DcTcpIncast.routerCore.eth[8].queue.red incomingPackets:count 1992
scalar DcTcpIncast.routerCore.eth[8].queue.red incomingPacketLengths:sum 924352
scalar DcTcpIncast.routerCore.eth[8].queue.red flowIncomingPacketLengths:sum 0
scalar DcTcpIncast.routerCore.eth[8].queue.red droppedPackets:count 0
scalar DcTcpIncast.routerCore.eth[8].queue.red droppedPacketLengths:sum 0
scalar DcTcpIncast.routerCore.eth[8].queue.red flowDroppedPacketLengths:sum 0
scalar DcTcpIncast.routerCore.eth[8].queue.red packetDropCongestion:count 0
scalar DcTcpIncast.routerCore.eth[8].queue.red packetDropCongestion:sum(packetBytes) 0
scalar DcTcpIncast.routerCore.eth[8].queue.fifo queueLength:last 0
scalar DcTcpIncast.routerCore.eth[8].queue.fifo queueLength:max 0
scalar DcTcpIncast.routerCore.eth[8].queue.fifo queueLength:timeavg 0
scalar DcTcpIncast.routerCore.eth[8].queue.fifo queueBitLength:last 0
scalar DcTcpIncast.routerCore.eth[8].queue.fifo queueBitLength:max 0
scalar DcTcpIncast.routerCore.eth[8].queue.fifo queueBitLength:timeavg 0
scalar DcTcpIncast.routerCore.eth[8].queue.fifo outgoingPackets:count 1992
scalar DcTcpIncast.routerCore.eth[8].queue.fifo outgoingPacketLengths:sum 924352
scalar DcTcpIncast.routerCore.eth[8].queue.fifo incomingPackets:count 1992
scalar DcTcpIncast.routerCore.eth[8].queue.fifo incomingPacketLengths:sum 924352
scalar DcTcpIncast.routerCore.eth[8].queue.fifo droppedPacketsQueueOverflow:count 0
scalar DcTcpIncast.routerCore.eth[8].queue.fifo droppedPacketLengthsQueueOverflow:sum 0
scalar DcTcpIncast.routerCore.eth[8].queue queueLength:last -1992
scalar DcTcpIncast.routerCore.eth[8].queue queueLength:max 0
scalar DcTcpIncast.routerCore.eth[8].queue queueLength:timeavg -388.295997216
scalar DcTcpIncast.routerCore.eth[8].queue queueBitLength:last -924352
scalar DcTcpIncast.routerCore.eth[8].queue queueBitLength:max 0
scalar DcTcpIncast.routerCore.eth[8].queue queueBitLength:timeavg -180230.75937843
scalar DcTcpIncast.routerCore.eth[8].queue outgoingPackets:count 1992
scalar DcTcpIncast.routerCore.eth[8].queue outgoingPacketLengths:sum 924352
scalar DcTcpIncast.routerCore.eth[8].queue incomingPackets:count 0
scalar DcTcpIncast.routerCore.eth[8].queue incomingPacketLengths:sum 0
scalar DcTcpIncast.routerCore.eth[8].queue droppedPacketsQueueOverflow:count 0
scalar DcTcpIncast.routerCore.eth[8].queue droppedPacketLengthsQueueOverflow:sum 0
scalar DcTcpIncast.routerCore.eth[8].mac "simulated time" 100
scalar DcTcpIncast.routerCore.eth[8].mac full-duplex 1
scalar DcTcpIncast.routerCore.eth[8].mac "frames/sec sent" 19.92
scalar DcTcpIncast.routerCore.eth[8].mac "frames/sec rcvd" 19.94
scalar DcTcpIncast.routerCore.eth[8].mac "bits/sec sent" 10199.2
scalar DcTcpIncast.routerCore.eth[8].mac "bits/sec rcvd" 189828.8
scalar DcTcpIncast.routerCore.eth[8].mac "rx channel idle (%)" 98.0889504
scalar DcTcpIncast.routerCore.eth[8].mac "rx channel utilization (%)" 1.9110496
scalar DcTcpIncast.routerCore.eth[8].mac rxPausePkUnits:count 0
scalar DcTcpIncast.routerCore.eth[8].mac rxPausePkUnits:sum 0
scalar DcTcpIncast.routerCore.eth[8].mac txPausePkUnits:count 0
scalar DcTcpIncast.routerCore.eth[8].mac txPausePkUnits:sum 0
scalar DcTcpIncast.routerCore.eth[8].mac rxPkOk:count 1994
scalar DcTcpIncast.routerCore.eth[8].mac rxPkOk:sum(packetBytes) 2372860
scalar DcTcpIncast.routerCore.eth[8].mac txPk:count 1992
scalar DcTcpIncast.routerCore.eth[8].mac txPk:sum(packetBytes) 127490
scalar DcTcpIncast.routerCore.eth[8].mac packetReceivedFromUpper:count 1992
scalar DcTcpIncast.routerCore.eth[8].mac packetReceivedFromUpper:sum(packetBytes) 115544
scalar DcTcpIncast.routerCore.eth[8].mac passedUpPk:count 1994
scalar DcTcpIncast.routerCore.eth[8].mac passedUpPk:sum(packetBytes) 2372860
scalar DcTcpIncast.routerCore.eth[8].mac packetDropIncorrectlyReceived:count 0
scalar DcTcpIncast.routerCore.eth[8].mac packetDropIncorrectlyReceived:sum(packetBytes) 0
scalar DcTcpIncast.routerCore.eth[8].mac packetDropInterfaceDown:count 0
scalar DcTcpIncast.routerCore.eth[8].mac packetDropInterfaceDown:sum(packetBytes) 0
scalar DcTcpIncast.routerCore.eth[8].mac packetDropNotAddressedToUs:count 0
scalar DcTcpIncast.routerCore.eth[8].mac packetDropNotAddressedToUs:sum(packetBytes) 0
scalar DcTcpIncast.routerCore.eth[8] packetDropInterfaceDown:count 0
scalar DcTcpIncast.routerCore.eth[8] packetDropInterfaceDown:sum(packetBytes) 0
scalar DcTcpIncast.routerCore.eth[8] packetDropNoCarrier:count 0
scalar DcTcpIncast.routerCore.eth[8] packetDropNoCarrier:sum(packetBytes) 0
scalar DcTcpIncast.routerCore.eth[9].queue.red outgoingPackets:count 1983
scalar DcTcpIncast.routerCore.eth[9].queue.red outgoingPacketLengths:sum 920176
scalar DcTcpIncast.routerCore.eth[9].queue.red flowOutgoingPacketLengths:sum 0
scalar DcTcpIncast.routerCore.eth[9].queue.red incomingPackets:count 1983
scalar DcTcpIncast.routerCore.eth[9].queue.red incomingPacketLengths:sum 920176
scalar DcTcpIncast.routerCore.eth[9].queue.red flowIncomingPacketLengths:sum 0
scalar DcTcpIncast.routerCore.eth[9].queue.red droppedPackets:count 0
scalar DcTcpIncast.routerCore.eth[9].queue.red droppedPacketLengths:sum 0
scalar DcTcpIncast.routerCore.eth[9].queue.red flowDroppedPacketLengths:sum 0
scalar DcTcpIncast.routerCore.eth[9].queue.red packetDropCongestion:count 0
scalar DcTcpIncast.routerCore.eth[9].queue.red packetDropCongestion:sum(packetBytes) 0
scalar DcTcpIncast.routerCore.eth[9].queue.fifo queueLength:last 0
scalar DcTcpIncast.routerCore.eth[9].queue.fifo queueLength:max 0
scalar DcTcpIncast.routerCore.eth[9].queue.fifo queueLength:timeavg 0
scalar DcTcpIncast.routerCore.eth[9].queue.fifo queueBitLength:last 0
scalar DcTcpIncast.routerCore.eth[9].queue.fifo queueBitLength:max 0
scalar DcTcpIncast.routerCore.eth[9].queue.fifo queueBitLength:timeavg 0
scalar DcTcpIncast.routerCore.eth[9].queue.fifo outgoingPackets:count 1983
scalar DcTcpIncast.routerCore.eth[9].queue.fifo outgoingPacketLengths:sum 920176
scalar DcTcpIncast.routerCore.eth[9].queue.fifo incomingPackets:count 1983
scalar DcTcpIncast.routerCore.eth[9].queue.fifo incomingPacketLengths:sum 920176
scalar DcTcpIncast.routerCore.eth[9].queue.fifo droppedPacketsQueueOverflow:count 0
scalar DcTcpIncast.routerCore.eth[9].queue.fifo droppedPacketLengthsQueueOverflow:sum 0
scalar DcTcpIncast.routerCore.eth[9].queue queueLength:last -1983
scalar DcTcpIncast.routerCore.eth[9].queue queueLength:max 0
scalar DcTcpIncast.routerCore.eth[9].queue queueLength:timeavg -384.911242776
scalar DcTcpIncast.routerCore.eth[9].queue queueBitLength:last -920176
scalar DcTcpIncast.routerCore.eth[9].queue queueBitLength:max 0
scalar DcTcpIncast.routerCore.eth[9].queue queueBitLength:timeavg -178660.23327424
scalar DcTcpIncast.routerCore.eth[9].queue outgoingPackets:count 1983
scalar DcTcpIncast.routerCore.eth[9].queue outgoingPacketLengths:sum 920176
scalar DcTcpIncast.routerCore.eth[9].queue incomingPackets:count 0
scalar DcTcpIncast.routerCore.eth[9].queue incomingPacketLengths:sum 0
scalar DcTcpIncast.routerCore.eth[9].queue droppedPacketsQueueOverflow:count 0
scalar DcTcpIncast.routerCore.eth[9].queue droppedPacketLengthsQueueOverflow:sum 0
scalar DcTcpIncast.routerCore.eth[9].mac "simulated time" 100
scalar DcTcpIncast.routerCore.eth[9].mac full-duplex 1
scalar DcTcpIncast.routerCore.eth[9].mac "frames/sec sent" 19.83
scalar DcTcpIncast.routerCore.eth[9].mac "frames/sec rcvd" 19.85
scalar DcTcpIncast.routerCore.eth[9].mac "bits/sec sent" 10153.12
scalar DcTcpIncast.routerCore.eth[9].mac "bits/sec rcvd" 189607.12
scalar DcTcpIncast.routerCore.eth[9].mac "rx channel idle (%)" 98.0912248
scalar DcTcpIncast.routerCore.eth[9].mac "rx channel utilization (%)" 1.9087752
scalar DcTcpIncast.routerCore.eth[9].mac rxPausePkUnits:count 0
scalar DcTcpIncast.routerCore.eth[9].mac rxPausePkUnits:sum 0
scalar DcTcpIncast.routerCore.eth[9].mac txPausePkUnits:count 0
scalar DcTcpIncast.routerCore.eth[9].mac txPausePkUnits:sum 0
scalar DcTcpIncast.routerCore.eth[9].mac rxPkOk:count 1985
scalar DcTcpIncast.routerCore.eth[9].mac rxPkOk:sum(packetBytes) 2370089
scalar DcTcpIncast.routerCore.eth[9].mac txPk:count 1983
scalar DcTcpIncast.routerCore.eth[9].mac txPk:sum(packetBytes) 126914
scalar DcTcpIncast.routerCore.eth[9].mac packetReceivedFromUpper:count 1983
scalar DcTcpIncast.routerCore.eth[9].mac packetReceivedFromUpper:sum(packetBytes) 115022
scalar DcTcpIncast.routerCore.eth[9].mac passedUpPk:count 1985
scalar DcTcpIncast.routerCore.eth[9].mac passedUpPk:sum(packetBytes) 2370089
scalar DcTcpIncast.routerCore.eth[9].mac packetDropIncorrectlyReceived:count 0
scalar DcTcpIncast.routerCore.eth[9].mac packetDropIncorrectlyReceived:sum(packetBytes) 0
scalar DcTcpIncast.routerCore.eth[9].mac packetDropInterfaceDown:count 0
scalar DcTcpIncast.routerCore.eth[9].mac packetDropInterfaceDown:sum(packetBytes) 0
scalar DcTcpIncast.routerCore.eth[9].mac packetDropNotAddressedToUs:count 0
scalar DcTcpIncast.routerCore.eth[9].mac packetDropNotAddressedToUs:sum(packetBytes) 0
scalar DcTcpIncast.routerCore.eth[9] packetDropInterfaceDown:count 0
scalar DcTcpIncast.routerCore.eth[9] packetDropInterfaceDown:sum(packetBytes) 0
scalar DcTcpIncast.routerCore.eth[9] packetDropNoCarrier:count 0
scalar DcTcpIncast.routerCore.eth[9] packetDropNoCarrier:sum(packetBytes) 0
scalar DcTcpIncast.routerCore.eth[10].queue.red outgoingPackets:count 1985
scalar DcTcpIncast.routerCore.eth[10].queue.red outgoingPacketLengths:sum 921104
scalar DcTcpIncast.routerCore.eth[10].queue.red flowOutgoingPacketLengths:sum 0
scalar DcTcpIncast.routerCore.eth[10].queue.red incomingPackets:count 1985
scalar DcTcpIncast.routerCore.eth[10].queue.red incomingPacketLengths:sum 921104
scalar DcTcpIncast.routerCore.eth[10].queue.red flowIncomingPacketLengths:sum 0
scalar DcTcpIncast.routerCore.eth[10].queue.red droppedPackets:count 0
scalar DcTcpIncast.routerCore.eth[10].queue.red droppedPacketLengths:sum 0
scalar DcTcpIncast.routerCore.eth[10].queue.red flowDroppedPacketLengths:sum 0
scalar DcTcpIncast.routerCore.eth[10].queue.red packetDropCongestion:count 0
scalar DcTcpIncast.routerCore.eth[10].queue.red packetDropCongestion:sum(packetBytes) 0
scalar DcTcpIncast.routerCore.eth[10].queue.fifo queueLength:last 0
scalar DcTcpIncast.routerCore.eth[10].queue.fifo queueLength:max 0
scalar DcTcpIncast.routerCore.eth[10].queue.fifo queueLength:timeavg 0
scalar DcTcpIncast.routerCore.eth[10].queue.fifo queueBitLength:last 0
scalar DcTcpIncast.routerCore.eth[10].queue.fifo queueBitLength:max 0
scalar DcTcpIncast.routerCore.eth[10].queue.fifo queueBitLength:timeavg 0
scalar DcTcpIncast.routerCore.eth[10].queue.fifo outgoingPackets:count 1985
scalar DcTcpIncast.routerCore.eth[10].queue.fifo outgoingPacketLengths:sum 921104
scalar DcTcpIncast.routerCore.eth[10].queue.fifo incomingPackets:count 1985
scalar DcTcpIncast.routerCore.eth[10].queue.fifo incomingPacketLengths:sum 921104
scalar DcTcpIncast.routerCore.eth[10].queue.fifo droppedPacketsQueueOverflow:count 0
scalar DcTcpIncast.routerCore.eth[10].queue.fifo droppedPacketLengthsQueueOverflow:sum 0
scalar DcTcpIncast.routerCore.eth[10].queue queueLength:last -1985
scalar DcTcpIncast.routerCore.eth[10].queue queueLength:max 0
scalar DcTcpIncast.routerCore.eth[10].queue queueLength:timeavg -385.617735152
scalar DcTcpIncast.routerCore.eth[10].queue queueBitLength:last -921104
scalar DcTcpIncast.routerCore.eth[10].queue queueBitLength:max 0
scalar DcTcpIncast.routerCore.eth[10].queue queueBitLength:timeavg -178988.04569267
scalar DcTcpIncast.routerCore.eth[10].queue outgoingPackets:count 1985
scalar DcTcpIncast.routerCore.eth[10].queue outgoingPacketLengths:sum 921104
scalar DcTcpIncast.routerCore.eth[10].queue incomingPackets:count 0
scalar DcTcpIncast.routerCore.eth[10].queue incomingPacketLengths:sum 0
scalar DcTcpIncast.routerCore.eth[10].queue droppedPacketsQueueOverflow:count 0
scalar DcTcpIncast.routerCore.eth[10].queue droppedPacketLengthsQueueOverflow:sum 0
scalar DcTcpIncast.routerCore.eth[10].mac "simulated time" 100
scalar DcTcpIncast.routerCore.eth[10].mac full-duplex 1
scalar DcTcpIncast.routerCore.eth[10].mac "frames/sec sent" 19.85
scalar DcTcpIncast.routerCore.eth[10].mac "frames/sec rcvd" 19.87
scalar DcTcpIncast.routerCore.eth[10].mac "bits/sec sent" 10163.36
scalar DcTcpIncast.routerCore.eth[10].mac "bits/sec rcvd" 189542.72
scalar DcTcpIncast.routerCore.eth[10].mac "rx channel idle (%)" 98.091856
scalar DcTcpIncast.routerCore.eth[10].mac "rx channel utilization (%)" 1.908144
scalar DcTcpIncast.routerCore.eth[10].mac rxPausePkUnits:count 0
scalar DcTcpIncast.routerCore.eth[10].mac rxPausePkUnits:sum 0
scalar DcTcpIncast.routerCore.eth[10].mac txPausePkUnits:count 0
scalar DcTcpIncast.routerCore.eth[10].mac txPausePkUnits:sum 0
scalar DcTcpIncast.routerCore.eth[10].mac rxPkOk:count 1987
scalar DcTcpIncast.routerCore.eth[10].mac rxPkOk:sum(packetBytes) 2369284
scalar DcTcpIncast.routerCore.eth[10].mac txPk:count 1985
scalar DcTcpIncast.routerCore.eth[10].mac txPk:sum(packetBytes) 127042
scalar DcTcpIncast.routerCore.eth[10].mac packetReceivedFromUpper:count 1985
scalar DcTcpIncast.routerCore.eth[10].mac packetReceivedFromUpper:sum(packetBytes) 115138
scalar DcTcpIncast.routerCore.eth[10].mac passedUpPk:count 1987
scalar DcTcpIncast.routerCore.eth[10].mac passedUpPk:sum(packetBytes) 2369284
scalar DcTcpIncast.routerCore.eth[10].mac packetDropIncorrectlyReceived:count 0
scalar DcTcpIncast.routerCore.eth[10].mac packetDropIncorrectlyReceived:sum(packetBytes) 0
scalar DcTcpIncast.routerCore.eth[10].mac packetDropInterfaceDown:count 0
scalar DcTcpIncast.routerCore.eth[10].mac packetDropInterfaceDown:sum(packetBytes) 0
scalar DcTcpIncast.routerCore.eth[10].mac packetDropNotAddressedToUs:count 0
scalar DcTcpIncast.routerCore.eth[10].mac packetDropNotAddressedToUs:sum(packetBytes) 0
scalar DcTcpIncast.routerCore.eth[10] packetDropInterfaceDown:count 0
scalar DcTcpIncast.routerCore.eth[10] packetDropInterfaceDown:sum(packetBytes) 0
scalar DcTcpIncast.routerCore.eth[10] packetDropNoCarrier:count 0
scalar DcTcpIncast.routerCore.eth[10] packetDropNoCarrier:sum(packetBytes) 0
scalar DcTcpIncast.routerCore.eth[11].queue.red outgoingPackets:count 1985
scalar DcTcpIncast.routerCore.eth[11].queue.red outgoingPacketLengths:sum 921104
scalar DcTcpIncast.routerCore.eth[11].queue.red flowOutgoingPacketLengths:sum 0
scalar DcTcpIncast.routerCore.eth[11].queue.red incomingPackets:count 1985
scalar DcTcpIncast.routerCore.eth[11].queue.red incomingPacketLengths:sum 921104
scalar DcTcpIncast.routerCore.eth[11].queue.red flowIncomingPacketLengths:sum 0
scalar DcTcpIncast.routerCore.eth[11].queue.red droppedPackets:count 0
scalar DcTcpIncast.routerCore.eth[11].queue.red droppedPacketLengths:sum 0
scalar DcTcpIncast.routerCore.eth[11].queue.red flowDroppedPacketLengths:sum 0
scalar DcTcpIncast.routerCore.eth[11].queue.red packetDropCongestion:count 0
scalar DcTcpIncast.routerCore.eth[11].queue.red packetDropCongestion:sum(packetBytes) 0
scalar DcTcpIncast.routerCore.eth[11].queue.fifo queueLength:last 0
scalar DcTcpIncast.routerCore.eth[11].queue.fifo queueLength:max 0
scalar DcTcpIncast.routerCore.eth[11].queue.fifo queueLength:timeavg 0
scalar DcTcpIncast.routerCore.eth[11].queue.fifo queueBitLength:last 0
scalar DcTcpIncast.routerCore.eth[11].queue.fifo queueBitLength:max 0
scalar DcTcpIncast.routerCore.eth[11].queue.fifo queueBitLength:timeavg 0
scalar DcTcpIncast.routerCore.eth[11].queue.fifo outgoingPackets:count 1985
scalar DcTcpIncast.routerCore.eth[11].queue.fifo outgoingPacketLengths:sum 921104
scalar DcTcpIncast.routerCore.eth[11].queue.fifo incomingPackets:count 1985
scalar DcTcpIncast.routerCore.eth[11].queue.fifo incomingPacketLengths:sum 921104
scalar DcTcpIncast.routerCore.eth[11].queue.fifo droppedPacketsQueueOverflow:count 0
scalar DcTcpIncast.routerCore.eth[11].queue.fifo droppedPacketLengthsQueueOverflow:sum 0
scalar DcTcpIncast.routerCore.eth[11].queue queueLength:last -1985
scalar DcTcpIncast.routerCore.eth[11].queue queueLength:max 0
scalar DcTcpIncast.routerCore.eth[11].queue queueLength:timeavg -385.482965192
scalar DcTcpIncast.routerCore.eth[11].queue queueBitLength:last -921104
scalar DcTcpIncast.routerCore.eth[11].queue queueBitLength:max 0
scalar DcTcpIncast.routerCore.eth[11].queue queueBitLength:timeavg -178921.67269542
scalar DcTcpIncast.routerCore.eth[11].queue outgoingPackets:count 1985
scalar DcTcpIncast.routerCore.eth[11].queue outgoingPacketLengths:sum 921104
scalar DcTcpIncast.routerCore.eth[11].queue incomingPackets:count 0
scalar DcTcpIncast.routerCore.eth[11].queue incomingPacketLengths:sum 0
scalar DcTcpIncast.routerCore.eth[11].queue droppedPacketsQueueOverflow:count 0
scalar DcTcpIncast.routerCore.eth[11].queue droppedPacketLengthsQueueOverflow:sum 0
scalar DcTcpIncast.routerCore.eth[11].mac "simulated time" 100
scalar DcTcpIncast.routerCore.eth[11].mac full-duplex 1
scalar DcTcpIncast.routerCore.eth[11].mac "frames/sec sent" 19.85
scalar DcTcpIncast.routerCore.eth[11].mac "frames/sec rcvd" 19.88
scalar DcTcpIncast.routerCore.eth[11].mac "bits/sec sent" 10163.36
scalar DcTcpIncast.routerCore.eth[11].mac "bits/sec rcvd" 189548
scalar DcTcpIncast.routerCore.eth[11].mac "rx channel idle (%)" 98.0917968
scalar DcTcpIncast.routerCore.eth[11].mac "rx channel utilization (%)" 1.9082032
scalar DcTcpIncast.routerCore.eth[11].mac rxPausePkUnits:count 0
scalar DcTcpIncast.routerCore.eth[11].mac rxPausePkUnits:sum 0
scalar DcTcpIncast.routerCore.eth[11].mac txPausePkUnits:count 0
scalar DcTcpIncast.routerCore.eth[11].mac txPausePkUnits:sum 0
scalar DcTcpIncast.routerCore.eth[11].mac rxPkOk:count 1988
scalar DcTcpIncast.routerCore.eth[11].mac rxPkOk:sum(packetBytes) 2369350
scalar DcTcpIncast.routerCore.eth[11].mac txPk:count 1985
scalar DcTcpIncast.routerCore.eth[11].mac txPk:sum(packetBytes) 127042
scalar DcTcpIncast.routerCore.eth[11].mac packetReceivedFromUpper:count 1985
scalar DcTcpIncast.routerCore.eth[11].mac packetReceivedFromUpper:sum(packetBytes) 115138
scalar DcTcpIncast.routerCore.eth[11].mac passedUpPk:count 1988
scalar DcTcpIncast.routerCore.eth[11].mac passedUpPk:sum(packetBytes) 2369350
scalar DcTcpIncast.routerCore.eth[11].mac packetDropIncorrectlyReceived:count 0
scalar DcTcpIncast.routerCore.eth[11].mac packetDropIncorrectlyReceived:sum(packetBytes) 0
scalar DcTcpIncast.routerCore.eth[11].mac packetDropInterfaceDown:count 0
scalar DcTcpIncast.routerCore.eth[11].mac packetDropInterfaceDown:sum(packetBytes) 0
scalar DcTcpIncast.routerCore.eth[11].mac packetDropNotAddressedToUs:count 0
scalar DcTcpIncast.routerCore.eth[11].mac packetDropNotAddressedToUs:sum(packetBytes) 0
scalar DcTcpIncast.routerCore.eth[11] packetDropInterfaceDown:count 0
scalar DcTcpIncast.routerCore.eth[11] packetDropInterfaceDown:sum(packetBytes) 0
scalar DcTcpIncast.routerCore.eth[11] packetDropNoCarrier:count 0
scalar DcTcpIncast.routerCore.eth[11] packetDropNoCarrier:sum(packetBytes) 0
scalar DcTcpIncast.routerCore.eth[12].queue.red outgoingPackets:count 1985
scalar DcTcpIncast.routerCore.eth[12].queue.red outgoingPacketLengths:sum 921104
scalar DcTcpIncast.routerCore.eth[12].queue.red flowOutgoingPacketLengths:sum 0
scalar DcTcpIncast.routerCore.eth[12].queue.red incomingPackets:count 1985
scalar DcTcpIncast.routerCore.eth[12].queue.red incomingPacketLengths:sum 921104
scalar DcTcpIncast.routerCore.eth[12].queue.red flowIncomingPacketLengths:sum 0
scalar DcTcpIncast.routerCore.eth[12].queue.red droppedPackets:count 0
scalar DcTcpIncast.routerCore.eth[12].queue.red droppedPacketLengths:sum 0
scalar DcTcpIncast.routerCore.eth[12].queue.red flowDroppedPacketLengths:sum 0
scalar DcTcpIncast.routerCore.eth[12].queue.red packetDropCongestion:count 0
scalar DcTcpIncast.routerCore.eth[12].queue.red packetDropCongestion:sum(packetBytes) 0
scalar DcTcpIncast.routerCore.eth[12].queue.fifo queueLength:last 0
scalar DcTcpIncast.routerCore.eth[12].queue.fifo queueLength:max 0
scalar DcTcpIncast.routerCore.eth[12].queue.fifo queueLength:timeavg 0
scalar DcTcpIncast.routerCore.eth[12].queue.fifo queueBitLength:last 0
scalar DcTcpIncast.routerCore.eth[12].queue.fifo queueBitLength:max 0
scalar DcTcpIncast.routerCore.eth[12].queue.fifo queueBitLength:timeavg 0
scalar DcTcpIncast.routerCore.eth[12].queue.fifo outgoingPackets:count 1985
scalar DcTcpIncast.routerCore.eth[12].queue.fifo outgoingPacketLengths:sum 921104
scalar DcTcpIncast.routerCore.eth[12].queue.fifo incomingPackets:count 1985
scalar DcTcpIncast.routerCore.eth[12].queue.fifo incomingPacketLengths:sum 921104
scalar DcTcpIncast.routerCore.eth[12].queue.fifo droppedPacketsQueueOverflow:count 0
scalar DcTcpIncast.routerCore.eth[12].queue.fifo droppedPacketLengthsQueueOverflow:sum 0
scalar DcTcpIncast.routerCore.eth[12].queue queueLength:last -1985
scalar DcTcpIncast.routerCore.eth[12].queue queueLength:max 0
scalar DcTcpIncast.routerCore.eth[12].queue queueLength:timeavg -385.423624976
scalar DcTcpIncast.routerCore.eth[12].queue queueBitLength:last -921104
scalar DcTcpIncast.routerCore.eth[12].queue queueBitLength:max 0
scalar DcTcpIncast.routerCore.eth[12].queue queueBitLength:timeavg -178894.13879117
scalar DcTcpIncast.routerCore.eth[12].queue outgoingPackets:count 1985
scalar DcTcpIncast.routerCore.eth[12].queue outgoingPacketLengths:sum 921104
scalar DcTcpIncast.routerCore.eth[12].queue incomingPackets:count 0
scalar DcTcpIncast.routerCore.eth[12].queue incomingPacketLengths:sum 0
scalar DcTcpIncast.routerCore.eth[12].queue droppedPacketsQueueOverflow:count 0
scalar DcTcpIncast.routerCore.eth[12].queue droppedPacketLengthsQueueOverflow:sum 0
scalar DcTcpIncast.routerCore.eth[12].mac "simulated time" 100
scalar DcTcpIncast.routerCore.eth[12].mac full-duplex 1
scalar DcTcpIncast.routerCore.eth[12].mac "frames/sec sent" 19.85
scalar DcTcpIncast.routerCore.eth[12].mac "frames/sec rcvd" 19.88
scalar DcTcpIncast.routerCore.eth[12].mac "bits/sec sent" 10163.36
scalar DcTcpIncast.routerCore.eth[12].mac "bits/sec rcvd" 189548
scalar DcTcpIncast.routerCore.eth[12].mac "rx channel idle (%)" 98.0917968
scalar DcTcpIncast.routerCore.eth[12].mac "rx channel utilization (%)" 1.9082032
scalar DcTcpIncast.routerCore.eth[12].mac rxPausePkUnits:count 0
scalar DcTcpIncast.routerCore.eth[12].mac rxPausePkUnits:sum 0
scalar DcTcpIncast.routerCore.eth[12].mac txPausePkUnits:count 0
scalar DcTcpIncast.routerCore.eth[12].mac txPausePkUnits:sum 0
scalar DcTcpIncast.routerCore.eth[12].mac rxPkOk:count 1988
scalar DcTcpIncast.routerCore.eth[12].mac rxPkOk:sum(packetBytes) 2369350
scalar DcTcpIncast.routerCore.eth[12].mac txPk:count 1985
scalar DcTcpIncast.routerCore.eth[12].mac txPk:sum(packetBytes) 127042
scalar DcTcpIncast.routerCore.eth[12].mac packetReceivedFromUpper:count 1985
scalar DcTcpIncast.routerCore.eth[12].mac packetReceivedFromUpper:sum(packetBytes) 115138
scalar DcTcpIncast.routerCore.eth[12].mac passedUpPk:count 1988
scalar DcTcpIncast.routerCore.eth[12].mac passedUpPk:sum(packetBytes) 2369350
scalar DcTcpIncast.routerCore.eth[12].mac packetDropIncorrectlyReceived:count 0
scalar DcTcpIncast.routerCore.eth[12].mac packetDropIncorrectlyReceived:sum(packetBytes) 0
scalar DcTcpIncast.routerCore.eth[12].mac packetDropInterfaceDown:count 0
scalar DcTcpIncast.routerCore.eth[12].mac packetDropInterfaceDown:sum(packetBytes) 0
scalar DcTcpIncast.routerCore.eth[12].mac packetDropNotAddressedToUs:count 0
scalar DcTcpIncast.routerCore.eth[12].mac packetDropNotAddressedToUs:sum(packetBytes) 0
scalar DcTcpIncast.routerCore.eth[12] packetDropInterfaceDown:count 0
scalar DcTcpIncast.routerCore.eth[12] packetDropInterfaceDown:sum(packetBytes) 0
scalar DcTcpIncast.routerCore.eth[12] packetDropNoCarrier:count 0
scalar DcTcpIncast.routerCore.eth[12] packetDropNoCarrier:sum(packetBytes) 0
scalar DcTcpIncast.routerCore.eth[13].queue.red outgoingPackets:count 1985
scalar DcTcpIncast.routerCore.eth[13].queue.red outgoingPacketLengths:sum 921104
scalar DcTcpIncast.routerCore.eth[13].queue.red flowOutgoingPacketLengths:sum 0
scalar DcTcpIncast.routerCore.eth[13].queue.red incomingPackets:count 1985
scalar DcTcpIncast.routerCore.eth[13].queue.red incomingPacketLengths:sum 921104
scalar DcTcpIncast.routerCore.eth[13].queue.red flowIncomingPacketLengths:sum 0
scalar DcTcpIncast.routerCore.eth[13].queue.red droppedPackets:count 0
scalar DcTcpIncast.routerCore.eth[13].queue.red droppedPacketLengths:sum 0
scalar DcTcpIncast.routerCore.eth[13].queue.red flowDroppedPacketLengths:sum 0
scalar DcTcpIncast.routerCore.eth[13].queue.red packetDropCongestion:count 0
scalar DcTcpIncast.routerCore.eth[13].queue.red packetDropCongestion:sum(packetBytes) 0
scalar DcTcpIncast.routerCore.eth[13].queue.fifo queueLength:last 0
scalar DcTcpIncast.routerCore.eth[13].queue.fifo queueLength:max 0
scalar DcTcpIncast.routerCore.eth[13].queue.fifo queueLength:timeavg 0
scalar DcTcpIncast.routerCore.eth[13].queue.fifo queueBitLength:last 0
scalar DcTcpIncast.routerCore.eth[13].queue.fifo queueBitLength:max 0
scalar DcTcpIncast.routerCore.eth[13].queue.fifo queueBitLength:timeavg 0
scalar DcTcpIncast.routerCore.eth[13].queue.fifo outgoingPackets:count 1985
scalar DcTcpIncast.routerCore.eth[13].queue.fifo outgoingPacketLengths:sum 921104
scalar DcTcpIncast.routerCore.eth[13].queue.fifo incomingPackets:count 1985
scalar DcTcpIncast.routerCore.eth[13].queue.fifo incomingPacketLengths:sum 921104
scalar DcTcpIncast.routerCore.eth[13].queue.fifo droppedPacketsQueueOverflow:count 0
scalar DcTcpIncast.routerCore.eth[13].queue.fifo droppedPacketLengthsQueueOverflow:sum 0
scalar DcTcpIncast.routerCore.eth[13].queue queueLength:last -1985
scalar DcTcpIncast.routerCore.eth[13].queue queueLength:max 0
scalar DcTcpIncast.routerCore.eth[13].queue queueLength:timeavg -385.36428476
scalar DcTcpIncast.routerCore.eth[13].queue queueBitLength:last -921104
scalar DcTcpIncast.routerCore.eth[13].queue queueBitLength:max 0
scalar DcTcpIncast.routerCore.eth[13].queue queueBitLength:timeavg -178866.60488691
scalar DcTcpIncast.routerCore.eth[13].queue outgoingPackets:count 1985
scalar DcTcpIncast.routerCore.eth[13].queue outgoingPacketLengths:sum 921104
scalar DcTcpIncast.routerCore.eth[13].queue incomingPackets:count 0
scalar DcTcpIncast.routerCore.eth[13].queue incomingPacketLengths:sum 0
scalar DcTcpIncast.routerCore.eth[13].queue droppedPacketsQueueOverflow:count 0
scalar DcTcpIncast.routerCore.eth[13].queue droppedPacketLengthsQueueOverflow:sum 0
scalar DcTcpIncast.routerCore.eth[13].mac "simulated time" 100
scalar DcTcpIncast.routerCore.eth[13].mac full-duplex 1
scalar DcTcpIncast.routerCore.eth[13].mac "frames/sec sent" 19.85
scalar DcTcpIncast.routerCore.eth[13].mac "frames/sec rcvd" 19.88
scalar DcTcpIncast.routerCore.eth[13].mac "bits/sec sent" 10163.36
scalar DcTcpIncast.routerCore.eth[13].mac "bits/sec rcvd" 189548
scalar DcTcpIncast.routerCore.eth[13].mac "rx channel idle (%)" 98.0917968
scalar DcTcpIncast.routerCore.eth[13].mac "rx channel utilization (%)" 1.9082032
scalar DcTcpIncast.routerCore.eth[13].mac rxPausePkUnits:count 0
scalar DcTcpIncast.routerCore.eth[13].mac rxPausePkUnits:sum 0
scalar DcTcpIncast.routerCore.eth[13].mac txPausePkUnits:count 0
scalar DcTcpIncast.routerCore.eth[13].mac txPausePkUnits:sum 0
scalar DcTcpIncast.routerCore.eth[13].mac rxPkOk:count 1988
scalar DcTcpIncast.routerCore.eth[13].mac rxPkOk:sum(packetBytes) 2369350
scalar DcTcpIncast.routerCore.eth[13].mac txPk:count 1985
scalar DcTcpIncast.routerCore.eth[13].mac txPk:sum(packetBytes) 127042
scalar DcTcpIncast.routerCore.eth[13].mac packetReceivedFromUpper:count 1985
scalar DcTcpIncast.routerCore.eth[13].mac packetReceivedFromUpper:sum(packetBytes) 115138
scalar DcTcpIncast.routerCore.eth[13].mac passedUpPk:count 1988
scalar DcTcpIncast.routerCore.eth[13].mac passedUpPk:sum(packetBytes) 2369350
scalar DcTcpIncast.routerCore.eth[13].mac packetDropIncorrectlyReceived:count 0
scalar DcTcpIncast.routerCore.eth[13].mac packetDropIncorrectlyReceived:sum(packetBytes) 0
scalar DcTcpIncast.routerCore.eth[13].mac packetDropInterfaceDown:count 0
scalar DcTcpIncast.routerCore.eth[13].mac packetDropInterfaceDown:sum(packetBytes) 0
scalar DcTcpIncast.routerCore.eth[13].mac packetDropNotAddressedToUs:count 0
scalar DcTcpIncast.routerCore.eth[13].mac packetDropNotAddressedToUs:sum(packetBytes) 0
scalar DcTcpIncast.routerCore.eth[13] packetDropInterfaceDown:count 0
scalar DcTcpIncast.routerCore.eth[13] packetDropInterfaceDown:sum(packetBytes) 0
scalar DcTcpIncast.routerCore.eth[13] packetDropNoCarrier:count 0
scalar DcTcpIncast.routerCore.eth[13] packetDropNoCarrier:sum(packetBytes) 0
scalar DcTcpIncast.routerCore.eth[14].queue.red outgoingPackets:count 2002
scalar DcTcpIncast.routerCore.eth[14].queue.red outgoingPacketLengths:sum 928992
scalar DcTcpIncast.routerCore.eth[14].queue.red flowOutgoingPacketLengths:sum 0
scalar DcTcpIncast.routerCore.eth[14].queue.red incomingPackets:count 2002
scalar DcTcpIncast.routerCore.eth[14].queue.red incomingPacketLengths:sum 928992
scalar DcTcpIncast.routerCore.eth[14].queue.red flowIncomingPacketLengths:sum 0
scalar DcTcpIncast.routerCore.eth[14].queue.red droppedPackets:count 0
scalar DcTcpIncast.routerCore.eth[14].queue.red droppedPacketLengths:sum 0
scalar DcTcpIncast.routerCore.eth[14].queue.red flowDroppedPacketLengths:sum 0
scalar DcTcpIncast.routerCore.eth[14].queue.red packetDropCongestion:count 0
scalar DcTcpIncast.routerCore.eth[14].queue.red packetDropCongestion:sum(packetBytes) 0
scalar DcTcpIncast.routerCore.eth[14].queue.fifo queueLength:last 0
scalar DcTcpIncast.routerCore.eth[14].queue.fifo queueLength:max 0
scalar DcTcpIncast.routerCore.eth[14].queue.fifo queueLength:timeavg 0
scalar DcTcpIncast.routerCore.eth[14].queue.fifo queueBitLength:last 0
scalar DcTcpIncast.routerCore.eth[14].queue.fifo queueBitLength:max 0
scalar DcTcpIncast.routerCore.eth[14].queue.fifo queueBitLength:timeavg 0
scalar DcTcpIncast.routerCore.eth[14].queue.fifo outgoingPackets:count 2002
scalar DcTcpIncast.routerCore.eth[14].queue.fifo outgoingPacketLengths:sum 928992
scalar DcTcpIncast.routerCore.eth[14].queue.fifo incomingPackets:count 2002
scalar DcTcpIncast.routerCore.eth[14].queue.fifo incomingPacketLengths:sum 928992
scalar DcTcpIncast.routerCore.eth[14].queue.fifo droppedPacketsQueueOverflow:count 0
scalar DcTcpIncast.routerCore.eth[14].queue.fifo droppedPacketLengthsQueueOverflow:sum 0
scalar DcTcpIncast.routerCore.eth[14].queue queueLength:last -2002
scalar DcTcpIncast.routerCore.eth[14].queue queueLength:max 0
scalar DcTcpIncast.routerCore.eth[14].queue queueLength:timeavg -390.405875008
scalar DcTcpIncast.routerCore.eth[14].queue queueBitLength:last -928992
scalar DcTcpIncast.routerCore.eth[14].queue queueBitLength:max 0
scalar DcTcpIncast.routerCore.eth[14].queue queueBitLength:timeavg -181205.90271795
scalar DcTcpIncast.routerCore.eth[14].queue outgoingPackets:count 2002
scalar DcTcpIncast.routerCore.eth[14].queue outgoingPacketLengths:sum 928992
scalar DcTcpIncast.routerCore.eth[14].queue incomingPackets:count 0
scalar DcTcpIncast.routerCore.eth[14].queue incomingPacketLengths:sum 0
scalar DcTcpIncast.routerCore.eth[14].queue droppedPacketsQueueOverflow:count 0
scalar DcTcpIncast.routerCore.eth[14].queue droppedPacketLengthsQueueOverflow:sum 0
scalar DcTcpIncast.routerCore.eth[14].mac "simulated time" 100
scalar DcTcpIncast.routerCore.eth[14].mac full-duplex 1
scalar DcTcpIncast.routerCore.eth[14].mac "frames/sec sent" 20.02
scalar DcTcpIncast.routerCore.eth[14].mac "frames/sec rcvd" 20.05
scalar DcTcpIncast.routerCore.eth[14].mac "bits/sec sent" 10250.4
scalar DcTcpIncast.routerCore.eth[14].mac "bits/sec rcvd" 188727.76
scalar DcTcpIncast.routerCore.eth[14].mac "rx channel idle (%)" 98.0998904
scalar DcTcpIncast.routerCore.eth[14].mac "rx channel utilization (%)" 1.9001096
scalar DcTcpIncast.routerCore.eth[14].mac rxPausePkUnits:count 0
scalar DcTcpIncast.routerCore.eth[14].mac rxPausePkUnits:sum 0
scalar DcTcpIncast.routerCore.eth[14].mac txPausePkUnits:count 0
scalar DcTcpIncast.routerCore.eth[14].mac txPausePkUnits:sum 0
scalar DcTcpIncast.routerCore.eth[14].mac rxPkOk:count 2005
scalar DcTcpIncast.routerCore.eth[14].mac rxPkOk:sum(packetBytes) 2359097
scalar DcTcpIncast.routerCore.eth[14].mac txPk:count 2002
scalar DcTcpIncast.routerCore.eth[14].mac txPk:sum(packetBytes) 128130
scalar DcTcpIncast.routerCore.eth[14].mac packetReceivedFromUpper:count 2002
scalar DcTcpIncast.routerCore.eth[14].mac packetReceivedFromUpper:sum(packetBytes) 116124
scalar DcTcpIncast.routerCore.eth[14].mac passedUpPk:count 2005
scalar DcTcpIncast.routerCore.eth[14].mac passedUpPk:sum(packetBytes) 2359097
scalar DcTcpIncast.routerCore.eth[14].mac packetDropIncorrectlyReceived:count 0
scalar DcTcpIncast.routerCore.eth[14].mac packetDropIncorrectlyReceived:sum(packetBytes) 0
scalar DcTcpIncast.routerCore.eth[14].mac packetDropInterfaceDown:count 0
scalar DcTcpIncast.routerCore.eth[14].mac packetDropInterfaceDown:sum(packetBytes) 0
scalar DcTcpIncast.routerCore.eth[14].mac packetDropNotAddressedToUs:count 0
scalar DcTcpIncast.routerCore.eth[14].mac packetDropNotAddressedToUs:sum(packetBytes) 0
scalar DcTcpIncast.routerCore.eth[14] packetDropInterfaceDown:count 0
scalar DcTcpIncast.routerCore.eth[14] packetDropInterfaceDown:sum(packetBytes) 0
scalar DcTcpIncast.routerCore.eth[14] packetDropNoCarrier:count 0
scalar DcTcpIncast.routerCore.eth[14] packetDropNoCarrier:sum(packetBytes) 0
scalar DcTcpIncast.routerCore.eth[15].queue.red outgoingPackets:count 1996
scalar DcTcpIncast.routerCore.eth[15].queue.red outgoingPacketLengths:sum 926208
scalar DcTcpIncast.routerCore.eth[15].queue.red flowOutgoingPacketLengths:sum 0
scalar DcTcpIncast.routerCore.eth[15].queue.red incomingPackets:count 1996
scalar DcTcpIncast.routerCore.eth[15].queue.red incomingPacketLengths:sum 926208
scalar DcTcpIncast.routerCore.eth[15].queue.red flowIncomingPacketLengths:sum 0
scalar DcTcpIncast.routerCore.eth[15].queue.red droppedPackets:count 0
scalar DcTcpIncast.routerCore.eth[15].queue.red droppedPacketLengths:sum 0
scalar DcTcpIncast.routerCore.eth[15].queue.red flowDroppedPacketLengths:sum 0
scalar DcTcpIncast.routerCore.eth[15].queue.red packetDropCongestion:count 0
scalar DcTcpIncast.routerCore.eth[15].queue.red packetDropCongestion:sum(packetBytes) 0
scalar DcTcpIncast.routerCore.eth[15].queue.fifo queueLength:last 0
scalar DcTcpIncast.routerCore.eth[15].queue.fifo queueLength:max 0
scalar DcTcpIncast.routerCore.eth[15].queue.fifo queueLength:timeavg 0
scalar DcTcpIncast.routerCore.eth[15].queue.fifo queueBitLength:last 0
scalar DcTcpIncast.routerCore.eth[15].queue.fifo queueBitLength:max 0
scalar DcTcpIncast.routerCore.eth[15].queue.fifo queueBitLength:timeavg 0
scalar DcTcpIncast.routerCore.eth[15].queue.fifo outgoingPackets:count 1996
scalar DcTcpIncast.routerCore.eth[15].queue.fifo outgoingPacketLengths:sum 926208
scalar DcTcpIncast.routerCore.eth[15].queue.fifo incomingPackets:count 1996
scalar DcTcpIncast.routerCore.eth[15].queue.fifo incomingPacketLengths:sum 926208
scalar DcTcpIncast.routerCore.eth[15].queue.fifo droppedPacketsQueueOverflow:count 0
scalar DcTcpIncast.routerCore.eth[15].queue.fifo droppedPacketLengthsQueueOverflow:sum 0
scalar DcTcpIncast.routerCore.eth[15].queue queueLength:last -1996
scalar DcTcpIncast.routerCore.eth[15].queue queueLength:max 0
scalar DcTcpIncast.routerCore.eth[15].queue queueLength:timeavg -389.508782704
scalar DcTcpIncast.routerCore.eth[15].queue queueBitLength:last -926208
scalar DcTcpIncast.routerCore.eth[15].queue queueBitLength:max 0
scalar DcTcpIncast.routerCore.eth[15].queue queueBitLength:timeavg -180789.65184486
scalar DcTcpIncast.routerCore.eth[15].queue outgoingPackets:count 1996
scalar DcTcpIncast.routerCore.eth[15].queue outgoingPacketLengths:sum 926208
scalar DcTcpIncast.routerCore.eth[15].queue incomingPackets:count 0
scalar DcTcpIncast.routerCore.eth[15].queue incomingPacketLengths:sum 0
scalar DcTcpIncast.routerCore.eth[15].queue droppedPacketsQueueOverflow:count 0
scalar DcTcpIncast.routerCore.eth[15].queue droppedPacketLengthsQueueOverflow:sum 0
scalar DcTcpIncast.routerCore.eth[15].mac "simulated time" 100
scalar DcTcpIncast.routerCore.eth[15].mac full-duplex 1
scalar DcTcpIncast.routerCore.eth[15].mac "frames/sec sent" 19.96
scalar DcTcpIncast.routerCore.eth[15].mac "frames/sec rcvd" 20.02
scalar DcTcpIncast.routerCore.eth[15].mac "bits/sec sent" 10219.68
scalar DcTcpIncast.routerCore.eth[15].mac "bits/sec rcvd" 188887.2
scalar DcTcpIncast.routerCore.eth[15].mac "rx channel idle (%)" 98.0983152
scalar DcTcpIncast.routerCore.eth[15].mac "rx channel utilization (%)" 1.9016848
scalar DcTcpIncast.routerCore.eth[15].mac rxPausePkUnits:count 0
scalar DcTcpIncast.routerCore.eth[15].mac rxPausePkUnits:sum 0
scalar DcTcpIncast.routerCore.eth[15].mac txPausePkUnits:count 0
scalar DcTcpIncast.routerCore.eth[15].mac txPausePkUnits:sum 0
scalar DcTcpIncast.routerCore.eth[15].mac rxPkOk:count 2002
scalar DcTcpIncast.routerCore.eth[15].mac rxPkOk:sum(packetBytes) 2361090
scalar DcTcpIncast.routerCore.eth[15].mac txPk:count 1996
[...]
scalar DcTcpIncast.client21.tcp.conn-79 sndWnd:vector:mean 207767.5
scalar DcTcpIncast.client21.tcp.conn-79 sndWnd:vector:stddev 201147.13051023
scalar DcTcpIncast.client21.tcp.conn-79 sndWnd:vector:min 65535
scalar DcTcpIncast.client21.tcp.conn-79 sndWnd:vector:max 350000
scalar DcTcpIncast.client21.tcp.conn-79 sndWnd:vector:starttime 22.0241872
scalar DcTcpIncast.client21.tcp.conn-79 sndWnd:vector:endtime 22.0724208
scalar DcTcpIncast.client21.tcp.conn-79 rcvWnd:vector:count 2001
scalar DcTcpIncast.client21.tcp.conn-79 rcvWnd:vector:sum 700065535
scalar DcTcpIncast.client21.tcp.conn-79 rcvWnd:vector:sumweights 2001
scalar DcTcpIncast.client21.tcp.conn-79 rcvWnd:vector:mean 349857.83858071
scalar DcTcpIncast.client21.tcp.conn-79 rcvWnd:vector:stddev 6359.2411605818
scalar DcTcpIncast.client21.tcp.conn-79 rcvWnd:vector:min 65535
scalar DcTcpIncast.client21.tcp.conn-79 rcvWnd:vector:max 350000
scalar DcTcpIncast.client21.tcp.conn-79 rcvWnd:vector:starttime 22.0241872
scalar DcTcpIncast.client21.tcp.conn-79 rcvWnd:vector:endtime 99.942632
scalar DcTcpIncast.client21.tcp.conn-79 rcvAdv:vector:count 2002
scalar DcTcpIncast.client21.tcp.conn-79 rcvAdv:vector:sum 3365754448
scalar DcTcpIncast.client21.tcp.conn-79 rcvAdv:vector:sumweights 2002
scalar DcTcpIncast.client21.tcp.conn-79 rcvAdv:vector:mean 1681196.027972
scalar DcTcpIncast.client21.tcp.conn-79 rcvAdv:vector:stddev 660895.74079457
scalar DcTcpIncast.client21.tcp.conn-79 rcvAdv:vector:min 315536
scalar DcTcpIncast.client21.tcp.conn-79 rcvAdv:vector:max 2843390
scalar DcTcpIncast.client21.tcp.conn-79 rcvAdv:vector:starttime 22.0241872
scalar DcTcpIncast.client21.tcp.conn-79 rcvAdv:vector:endtime 99.942632
scalar DcTcpIncast.client21.tcp.conn-79 sndNxt:vector:count 0
scalar DcTcpIncast.client21.tcp.conn-79 sndNxt:vector:sum 0
scalar DcTcpIncast.client21.tcp.conn-79 sndNxt:vector:sumweights 0
scalar DcTcpIncast.client21.tcp.conn-79 sndNxt:vector:mean -nan
scalar DcTcpIncast.client21.tcp.conn-79 sndNxt:vector:stddev nan
scalar DcTcpIncast.client21.tcp.conn-79 sndNxt:vector:min inf
scalar DcTcpIncast.client21.tcp.conn-79 sndNxt:vector:max -inf
scalar DcTcpIncast.client21.tcp.conn-79 sndNxt:vector:starttime nan
scalar DcTcpIncast.client21.tcp.conn-79 sndNxt:vector:endtime nan
scalar DcTcpIncast.client21.tcp.conn-79 sndAck:vector:count 2001
scalar DcTcpIncast.client21.tcp.conn-79 sndAck:vector:sum 2665373377
scalar DcTcpIncast.client21.tcp.conn-79 sndAck:vector:sumweights 2001
scalar DcTcpIncast.client21.tcp.conn-79 sndAck:vector:mean 1332020.6781609
scalar DcTcpIncast.client21.tcp.conn-79 sndAck:vector:stddev 660091.17206246
scalar DcTcpIncast.client21.tcp.conn-79 sndAck:vector:min 250001
scalar DcTcpIncast.client21.tcp.conn-79 sndAck:vector:max 2493390
scalar DcTcpIncast.client21.tcp.conn-79 sndAck:vector:starttime 22.0241872
scalar DcTcpIncast.client21.tcp.conn-79 sndAck:vector:endtime 99.942632
scalar DcTcpIncast.client21.tcp.conn-79 rcvSeq:vector:count 2001
scalar DcTcpIncast.client21.tcp.conn-79 rcvSeq:vector:sum 2663129988
scalar DcTcpIncast.client21.tcp.conn-79 rcvSeq:vector:sumweights 2001
scalar DcTcpIncast.client21.tcp.conn-79 rcvSeq:vector:mean 1330899.5442279
scalar DcTcpIncast.client21.tcp.conn-79 rcvSeq:vector:stddev 660022.79642915
scalar DcTcpIncast.client21.tcp.conn-79 rcvSeq:vector:min 250001
scalar DcTcpIncast.client21.tcp.conn-79 rcvSeq:vector:max 2491930
scalar DcTcpIncast.client21.tcp.conn-79 rcvSeq:vector:starttime 22.0724208
scalar DcTcpIncast.client21.tcp.conn-79 rcvSeq:vector:endtime 99.942632
scalar DcTcpIncast.client21.tcp.conn-79 rcvAck:vector:count 2001
scalar DcTcpIncast.client21.tcp.conn-79 rcvAck:vector:sum 11017600047
scalar DcTcpIncast.client21.tcp.conn-79 rcvAck:vector:sumweights 2001
scalar DcTcpIncast.client21.tcp.conn-79 rcvAck:vector:mean 5506047
scalar DcTcpIncast.client21.tcp.conn-79 rcvAck:vector:stddev 0
scalar DcTcpIncast.client21.tcp.conn-79 rcvAck:vector:min 5506047
scalar DcTcpIncast.client21.tcp.conn-79 rcvAck:vector:max 5506047
scalar DcTcpIncast.client21.tcp.conn-79 rcvAck:vector:starttime 22.0724208
scalar DcTcpIncast.client21.tcp.conn-79 rcvAck:vector:endtime 99.942632
scalar DcTcpIncast.client21.tcp.conn-79 unacked:vector:count 1
scalar DcTcpIncast.client21.tcp.conn-79 unacked:vector:sum 0
scalar DcTcpIncast.client21.tcp.conn-79 unacked:vector:sumweights 1
scalar DcTcpIncast.client21.tcp.conn-79 unacked:vector:mean 0
scalar DcTcpIncast.client21.tcp.conn-79 unacked:vector:stddev nan
scalar DcTcpIncast.client21.tcp.conn-79 unacked:vector:min 0
scalar DcTcpIncast.client21.tcp.conn-79 unacked:vector:max 0
scalar DcTcpIncast.client21.tcp.conn-79 unacked:vector:starttime 22.0724208
scalar DcTcpIncast.client21.tcp.conn-79 unacked:vector:endtime 22.0724208
scalar DcTcpIncast.client21.tcp.conn-79 dupAcks:vector:count 2000
scalar DcTcpIncast.client21.tcp.conn-79 dupAcks:vector:sum 0
scalar DcTcpIncast.client21.tcp.conn-79 dupAcks:vector:sumweights 2000
scalar DcTcpIncast.client21.tcp.conn-79 dupAcks:vector:mean 0
scalar DcTcpIncast.client21.tcp.conn-79 dupAcks:vector:stddev 0
scalar DcTcpIncast.client21.tcp.conn-79 dupAcks:vector:min 0
scalar DcTcpIncast.client21.tcp.conn-79 dupAcks:vector:max 0
scalar DcTcpIncast.client21.tcp.conn-79 dupAcks:vector:starttime 62.0498192
scalar DcTcpIncast.client21.tcp.conn-79 dupAcks:vector:endtime 99.942632
scalar DcTcpIncast.client21.tcp.conn-79 pipe:vector:count 0
scalar DcTcpIncast.client21.tcp.conn-79 pipe:vector:sum 0
scalar DcTcpIncast.client21.tcp.conn-79 pipe:vector:sumweights 0
scalar DcTcpIncast.client21.tcp.conn-79 pipe:vector:mean -nan
scalar DcTcpIncast.client21.tcp.conn-79 pipe:vector:stddev nan
scalar DcTcpIncast.client21.tcp.conn-79 pipe:vector:min inf
scalar DcTcpIncast.client21.tcp.conn-79 pipe:vector:max -inf
scalar DcTcpIncast.client21.tcp.conn-79 pipe:vector:starttime nan
scalar DcTcpIncast.client21.tcp.conn-79 pipe:vector:endtime nan
scalar DcTcpIncast.client21.tcp.conn-79 sndSacks:vector:count 0
scalar DcTcpIncast.client21.tcp.conn-79 sndSacks:vector:sum 0
scalar DcTcpIncast.client21.tcp.conn-79 sndSacks:vector:sumweights 0
scalar DcTcpIncast.client21.tcp.conn-79 sndSacks:vector:mean -nan
scalar DcTcpIncast.client21.tcp.conn-79 sndSacks:vector:stddev nan
scalar DcTcpIncast.client21.tcp.conn-79 sndSacks:vector:min inf
scalar DcTcpIncast.client21.tcp.conn-79 sndSacks:vector:max -inf
scalar DcTcpIncast.client21.tcp.conn-79 sndSacks:vector:starttime nan
scalar DcTcpIncast.client21.tcp.conn-79 sndSacks:vector:endtime nan
scalar DcTcpIncast.client21.tcp.conn-79 rcvSacks:vector:count 0
scalar DcTcpIncast.client21.tcp.conn-79 rcvSacks:vector:sum 0
scalar DcTcpIncast.client21.tcp.conn-79 rcvSacks:vector:sumweights 0
scalar DcTcpIncast.client21.tcp.conn-79 rcvSacks:vector:mean -nan
scalar DcTcpIncast.client21.tcp.conn-79 rcvSacks:vector:stddev nan
scalar DcTcpIncast.client21.tcp.conn-79 rcvSacks:vector:min inf
scalar DcTcpIncast.client21.tcp.conn-79 rcvSacks:vector:max -inf
scalar DcTcpIncast.client21.tcp.conn-79 rcvSacks:vector:starttime nan
scalar DcTcpIncast.client21.tcp.conn-79 rcvSacks:vector:endtime nan
scalar DcTcpIncast.client21.tcp.conn-79 rcvOooSeg:vector:count 0
scalar DcTcpIncast.client21.tcp.conn-79 rcvOooSeg:vector:sum 0
scalar DcTcpIncast.client21.tcp.conn-79 rcvOooSeg:vector:sumweights 0
scalar DcTcpIncast.client21.tcp.conn-79 rcvOooSeg:vector:mean -nan
scalar DcTcpIncast.client21.tcp.conn-79 rcvOooSeg:vector:stddev nan
scalar DcTcpIncast.client21.tcp.conn-79 rcvOooSeg:vector:min inf
scalar DcTcpIncast.client21.tcp.conn-79 rcvOooSeg:vector:max -inf
scalar DcTcpIncast.client21.tcp.conn-79 rcvOooSeg:vector:starttime nan
scalar DcTcpIncast.client21.tcp.conn-79 rcvOooSeg:vector:endtime nan
scalar DcTcpIncast.client21.tcp.conn-79 rcvNASeg:vector:count 0
scalar DcTcpIncast.client21.tcp.conn-79 rcvNASeg:vector:sum 0
scalar DcTcpIncast.client21.tcp.conn-79 rcvNASeg:vector:sumweights 0
scalar DcTcpIncast.client21.tcp.conn-79 rcvNASeg:vector:mean -nan
scalar DcTcpIncast.client21.tcp.conn-79 rcvNASeg:vector:stddev nan
scalar DcTcpIncast.client21.tcp.conn-79 rcvNASeg:vector:min inf
scalar DcTcpIncast.client21.tcp.conn-79 rcvNASeg:vector:max -inf
scalar DcTcpIncast.client21.tcp.conn-79 rcvNASeg:vector:starttime nan
scalar DcTcpIncast.client21.tcp.conn-79 rcvNASeg:vector:endtime nan
scalar DcTcpIncast.client21.tcp.conn-79 sackedBytes:vector:count 0
scalar DcTcpIncast.client21.tcp.conn-79 sackedBytes:vector:sum 0
scalar DcTcpIncast.client21.tcp.conn-79 sackedBytes:vector:sumweights 0
scalar DcTcpIncast.client21.tcp.conn-79 sackedBytes:vector:mean -nan
scalar DcTcpIncast.client21.tcp.conn-79 sackedBytes:vector:stddev nan
scalar DcTcpIncast.client21.tcp.conn-79 sackedBytes:vector:min inf
scalar DcTcpIncast.client21.tcp.conn-79 sackedBytes:vector:max -inf
scalar DcTcpIncast.client21.tcp.conn-79 sackedBytes:vector:starttime nan
scalar DcTcpIncast.client21.tcp.conn-79 sackedBytes:vector:endtime nan
scalar DcTcpIncast.client21.tcp.conn-79 tcpRcvQueueBytes:vector:count 4001
scalar DcTcpIncast.client21.tcp.conn-79 tcpRcvQueueBytes:vector:sum 0
scalar DcTcpIncast.client21.tcp.conn-79 tcpRcvQueueBytes:vector:sumweights 4001
scalar DcTcpIncast.client21.tcp.conn-79 tcpRcvQueueBytes:vector:mean 0
scalar DcTcpIncast.client21.tcp.conn-79 tcpRcvQueueBytes:vector:stddev 0
scalar DcTcpIncast.client21.tcp.conn-79 tcpRcvQueueBytes:vector:min 0
scalar DcTcpIncast.client21.tcp.conn-79 tcpRcvQueueBytes:vector:max 0
scalar DcTcpIncast.client21.tcp.conn-79 tcpRcvQueueBytes:vector:starttime 22.0241872
scalar DcTcpIncast.client21.tcp.conn-79 tcpRcvQueueBytes:vector:endtime 99.942632
scalar DcTcpIncast.client21.tcp.conn-79 tcpRcvQueueDrops:vector:count 0
scalar DcTcpIncast.client21.tcp.conn-79 tcpRcvQueueDrops:vector:sum 0
scalar DcTcpIncast.client21.tcp.conn-79 tcpRcvQueueDrops:vector:sumweights 0
scalar DcTcpIncast.client21.tcp.conn-79 tcpRcvQueueDrops:vector:mean -nan
scalar DcTcpIncast.client21.tcp.conn-79 tcpRcvQueueDrops:vector:stddev nan
scalar DcTcpIncast.client21.tcp.conn-79 tcpRcvQueueDrops:vector:min inf
scalar DcTcpIncast.client21.tcp.conn-79 tcpRcvQueueDrops:vector:max -inf
scalar DcTcpIncast.client21.tcp.conn-79 tcpRcvQueueDrops:vector:starttime nan
scalar DcTcpIncast.client21.tcp.conn-79 tcpRcvQueueDrops:vector:endtime nan
scalar DcTcpIncast.client21.tcp.conn-79 tcpRcvPayloadBytes:vector:count 2001
scalar DcTcpIncast.client21.tcp.conn-79 tcpRcvPayloadBytes:vector:sum 2243389
scalar DcTcpIncast.client21.tcp.conn-79 tcpRcvPayloadBytes:vector:sumweights 2001
scalar DcTcpIncast.client21.tcp.conn-79 tcpRcvPayloadBytes:vector:mean 1121.1339330335
scalar DcTcpIncast.client21.tcp.conn-79 tcpRcvPayloadBytes:vector:stddev 450.71443182238
scalar DcTcpIncast.client21.tcp.conn-79 tcpRcvPayloadBytes:vector:min 0
scalar DcTcpIncast.client21.tcp.conn-79 tcpRcvPayloadBytes:vector:max 1460
scalar DcTcpIncast.client21.tcp.conn-79 tcpRcvPayloadBytes:vector:starttime 22.0724208
scalar DcTcpIncast.client21.tcp.conn-79 tcpRcvPayloadBytes:vector:endtime 99.942632
scalar DcTcpIncast.client21.tcp.conn-79 cwnd:vector:count 0
scalar DcTcpIncast.client21.tcp.conn-79 cwnd:vector:sum 0
scalar DcTcpIncast.client21.tcp.conn-79 cwnd:vector:sumweights 0
scalar DcTcpIncast.client21.tcp.conn-79 cwnd:vector:mean -nan
scalar DcTcpIncast.client21.tcp.conn-79 cwnd:vector:stddev nan
scalar DcTcpIncast.client21.tcp.conn-79 cwnd:vector:min inf
scalar DcTcpIncast.client21.tcp.conn-79 cwnd:vector:max -inf
scalar DcTcpIncast.client21.tcp.conn-79 cwnd:vector:starttime nan
scalar DcTcpIncast.client21.tcp.conn-79 cwnd:vector:endtime nan
scalar DcTcpIncast.client21.tcp.conn-79 ssthresh:vector:count 0
scalar DcTcpIncast.client21.tcp.conn-79 ssthresh:vector:sum 0
scalar DcTcpIncast.client21.tcp.conn-79 ssthresh:vector:sumweights 0
scalar DcTcpIncast.client21.tcp.conn-79 ssthresh:vector:mean -nan
scalar DcTcpIncast.client21.tcp.conn-79 ssthresh:vector:stddev nan
scalar DcTcpIncast.client21.tcp.conn-79 ssthresh:vector:min inf
scalar DcTcpIncast.client21.tcp.conn-79 ssthresh:vector:max -inf
scalar DcTcpIncast.client21.tcp.conn-79 ssthresh:vector:starttime nan
scalar DcTcpIncast.client21.tcp.conn-79 ssthresh:vector:endtime nan
scalar DcTcpIncast.client21.tcp.conn-79 rtt:vector:count 0
scalar DcTcpIncast.client21.tcp.conn-79 rtt:vector:sum 0
scalar DcTcpIncast.client21.tcp.conn-79 rtt:vector:sumweights 0
scalar DcTcpIncast.client21.tcp.conn-79 rtt:vector:mean -nan
scalar DcTcpIncast.client21.tcp.conn-79 rtt:vector:stddev nan
scalar DcTcpIncast.client21.tcp.conn-79 rtt:vector:min inf
scalar DcTcpIncast.client21.tcp.conn-79 rtt:vector:max -inf
scalar DcTcpIncast.client21.tcp.conn-79 rtt:vector:starttime nan
scalar DcTcpIncast.client21.tcp.conn-79 rtt:vector:endtime nan
scalar DcTcpIncast.client21.tcp.conn-79 srtt:vector:count 0
scalar DcTcpIncast.client21.tcp.conn-79 srtt:vector:sum 0
scalar DcTcpIncast.client21.tcp.conn-79 srtt:vector:sumweights 0
scalar DcTcpIncast.client21.tcp.conn-79 srtt:vector:mean -nan
scalar DcTcpIncast.client21.tcp.conn-79 srtt:vector:stddev nan
scalar DcTcpIncast.client21.tcp.conn-79 srtt:vector:min inf
scalar DcTcpIncast.client21.tcp.conn-79 srtt:vector:max -inf
scalar DcTcpIncast.client21.tcp.conn-79 srtt:vector:starttime nan
scalar DcTcpIncast.client21.tcp.conn-79 srtt:vector:endtime nan
scalar DcTcpIncast.client21.tcp.conn-79 rttvar:vector:count 0
scalar DcTcpIncast.client21.tcp.conn-79 rttvar:vector:sum 0
scalar DcTcpIncast.client21.tcp.conn-79 rttvar:vector:sumweights 0
scalar DcTcpIncast.client21.tcp.conn-79 rttvar:vector:mean -nan
scalar DcTcpIncast.client21.tcp.conn-79 rttvar:vector:stddev nan
scalar DcTcpIncast.client21.tcp.conn-79 rttvar:vector:min inf
scalar DcTcpIncast.client21.tcp.conn-79 rttvar:vector:max -inf
scalar DcTcpIncast.client21.tcp.conn-79 rttvar:vector:starttime nan
scalar DcTcpIncast.client21.tcp.conn-79 rttvar:vector:endtime nan
scalar DcTcpIncast.client21.tcp.conn-79 rto:vector:count 0
scalar DcTcpIncast.client21.tcp.conn-79 rto:vector:sum 0
scalar DcTcpIncast.client21.tcp.conn-79 rto:vector:sumweights 0
scalar DcTcpIncast.client21.tcp.conn-79 rto:vector:mean -nan
scalar DcTcpIncast.client21.tcp.conn-79 rto:vector:stddev nan
scalar DcTcpIncast.client21.tcp.conn-79 rto:vector:min inf
scalar DcTcpIncast.client21.tcp.conn-79 rto:vector:max -inf
scalar DcTcpIncast.client21.tcp.conn-79 rto:vector:starttime nan
scalar DcTcpIncast.client21.tcp.conn-79 rto:vector:endtime nan
scalar DcTcpIncast.client21.tcp.conn-79 numRtos:vector:count 0
scalar DcTcpIncast.client21.tcp.conn-79 numRtos:vector:sum 0
scalar DcTcpIncast.client21.tcp.conn-79 numRtos:vector:sumweights 0
scalar DcTcpIncast.client21.tcp.conn-79 numRtos:vector:mean -nan
scalar DcTcpIncast.client21.tcp.conn-79 numRtos:vector:stddev nan
scalar DcTcpIncast.client21.tcp.conn-79 numRtos:vector:min inf
scalar DcTcpIncast.client21.tcp.conn-79 numRtos:vector:max -inf
scalar DcTcpIncast.client21.tcp.conn-79 numRtos:vector:starttime nan
scalar DcTcpIncast.client21.tcp.conn-79 numRtos:vector:endtime nan
scalar DcTcpIncast.client21.tcp.conn-79 load:vector:count 0
scalar DcTcpIncast.client21.tcp.conn-79 load:vector:sum 0
scalar DcTcpIncast.client21.tcp.conn-79 load:vector:sumweights 0
scalar DcTcpIncast.client21.tcp.conn-79 load:vector:mean -nan
scalar DcTcpIncast.client21.tcp.conn-79 load:vector:stddev nan
scalar DcTcpIncast.client21.tcp.conn-79 load:vector:min inf
scalar DcTcpIncast.client21.tcp.conn-79 load:vector:max -inf
scalar DcTcpIncast.client21.tcp.conn-79 load:vector:starttime nan
scalar DcTcpIncast.client21.tcp.conn-79 load:vector:endtime nan
scalar DcTcpIncast.client21.tcp.conn-79 calcLoad:vector:count 0
scalar DcTcpIncast.client21.tcp.conn-79 calcLoad:vector:sum 0
scalar DcTcpIncast.client21.tcp.conn-79 calcLoad:vector:sumweights 0
scalar DcTcpIncast.client21.tcp.conn-79 calcLoad:vector:mean -nan
scalar DcTcpIncast.client21.tcp.conn-79 calcLoad:vector:stddev nan
scalar DcTcpIncast.client21.tcp.conn-79 calcLoad:vector:min inf
scalar DcTcpIncast.client21.tcp.conn-79 calcLoad:vector:max -inf
scalar DcTcpIncast.client21.tcp.conn-79 calcLoad:vector:starttime nan
scalar DcTcpIncast.client21.tcp.conn-79 calcLoad:vector:endtime nan
scalar DcTcpIncast.client21.tcp.conn-79 markingProb:vector:count 0
scalar DcTcpIncast.client21.tcp.conn-79 markingProb:vector:sum 0
scalar DcTcpIncast.client21.tcp.conn-79 markingProb:vector:sumweights 0
scalar DcTcpIncast.client21.tcp.conn-79 markingProb:vector:mean -nan
scalar DcTcpIncast.client21.tcp.conn-79 markingProb:vector:stddev nan
scalar DcTcpIncast.client21.tcp.conn-79 markingProb:vector:min inf
scalar DcTcpIncast.client21.tcp.conn-79 markingProb:vector:max -inf
scalar DcTcpIncast.client21.tcp.conn-79 markingProb:vector:starttime nan
scalar DcTcpIncast.client21.tcp.conn-79 markingProb:vector:endtime nan
scalar DcTcpIncast.client21.app[18].thread_78 packetReceived:vector(packetBytes):count 1995
scalar DcTcpIncast.client21.app[18].thread_78 packetReceived:vector(packetBytes):sum 2247061
scalar DcTcpIncast.client21.app[18].thread_78 packetReceived:vector(packetBytes):sumweights 1995
scalar DcTcpIncast.client21.app[18].thread_78 packetReceived:vector(packetBytes):mean 1126.3463659148
scalar DcTcpIncast.client21.app[18].thread_78 packetReceived:vector(packetBytes):stddev 447.72394734888
scalar DcTcpIncast.client21.app[18].thread_78 packetReceived:vector(packetBytes):min 1
scalar DcTcpIncast.client21.app[18].thread_78 packetReceived:vector(packetBytes):max 1460
scalar DcTcpIncast.client21.app[18].thread_78 packetReceived:vector(packetBytes):starttime 62.0485888
scalar DcTcpIncast.client21.app[18].thread_78 packetReceived:vector(packetBytes):endtime 99.9988432
scalar DcTcpIncast.client21.app[18].thread_78 endToEndDelay:vector:count 1995
scalar DcTcpIncast.client21.app[18].thread_78 endToEndDelay:vector:sum 37029.346384
scalar DcTcpIncast.client21.app[18].thread_78 endToEndDelay:vector:sumweights 1995
scalar DcTcpIncast.client21.app[18].thread_78 endToEndDelay:vector:mean 18.561075881704
scalar DcTcpIncast.client21.app[18].thread_78 endToEndDelay:vector:stddev 11.111355277422
scalar DcTcpIncast.client21.app[18].thread_78 endToEndDelay:vector:min 0.0485888
scalar DcTcpIncast.client21.app[18].thread_78 endToEndDelay:vector:max 37.9988432
scalar DcTcpIncast.client21.app[18].thread_78 endToEndDelay:vector:starttime 62.0485888
scalar DcTcpIncast.client21.app[18].thread_78 endToEndDelay:vector:endtime 99.9988432
scalar DcTcpIncast.client21.app[19].thread_79 packetReceived:vector(packetBytes):count 2000
scalar DcTcpIncast.client21.app[19].thread_79 packetReceived:vector(packetBytes):sum 2243389
scalar DcTcpIncast.client21.app[19].thread_79 packetReceived:vector(packetBytes):sumweights 2000
scalar DcTcpIncast.client21.app[19].thread_79 packetReceived:vector(packetBytes):mean 1121.6945
scalar DcTcpIncast.client21.app[19].thread_79 packetReceived:vector(packetBytes):stddev 450.12889507433
scalar DcTcpIncast.client21.app[19].thread_79 packetReceived:vector(packetBytes):min 1
scalar DcTcpIncast.client21.app[19].thread_79 packetReceived:vector(packetBytes):max 1460
scalar DcTcpIncast.client21.app[19].thread_79 packetReceived:vector(packetBytes):starttime 62.0498192
scalar DcTcpIncast.client21.app[19].thread_79 packetReceived:vector(packetBytes):endtime 99.942632
scalar DcTcpIncast.client21.app[19].thread_79 endToEndDelay:vector:count 2000
scalar DcTcpIncast.client21.app[19].thread_79 endToEndDelay:vector:sum 36968.3739552
scalar DcTcpIncast.client21.app[19].thread_79 endToEndDelay:vector:sumweights 2000
scalar DcTcpIncast.client21.app[19].thread_79 endToEndDelay:vector:mean 18.4841869776
scalar DcTcpIncast.client21.app[19].thread_79 endToEndDelay:vector:stddev 11.104042351783
scalar DcTcpIncast.client21.app[19].thread_79 endToEndDelay:vector:min 0.0498192
scalar DcTcpIncast.client21.app[19].thread_79 endToEndDelay:vector:max 37.942632
scalar DcTcpIncast.client21.app[19].thread_79 endToEndDelay:vector:starttime 62.0498192
scalar DcTcpIncast.client21.app[19].thread_79 endToEndDelay:vector:endtime 99.942632

